* ________________________________________________________________________________________________
* 
* 
*             Synchronous Two-Port Register File Compiler
* 
*                 UMC 0.11um LL AE Logic Process
* 
* ________________________________________________________________________________________________
* 
*               
*         Copyright (C) 2024 Faraday Technology Corporation. All Rights Reserved.       
*                
*         This source code is an unpublished work belongs to Faraday Technology Corporation       
*         It is considered a trade secret and is not to be divulged or       
*         used by parties who have not received written authorization from       
*         Faraday Technology Corporation       
*                
*         Faraday's home page can be found at: http://www.faraday-tech.com/       
*                
* ________________________________________________________________________________________________
* 
*        IP Name            :  FSR0K_D_SZ                
*        IP Version         :  1.7.0                     
*        IP Release Status  :  Active                    
*        Word               :  256                       
*        Bit                :  9                         
*        Byte               :  8                         
*        Mux                :  2                         
*        Output Loading     :  0.01                      
*        Clock Input Slew   :  0.016                     
*        Data Input Slew    :  0.016                     
*        Ring Type          :  Ringless Model            
*        Ring Width         :  0                         
*        Bus Format         :  0                         
*        Memaker Path       :  /home/mem/Desktop/memlib  
*        GUI Version        :  m20230904                 
*        Date               :  2024/11/27 14:57:46       
* ________________________________________________________________________________________________
* 
*** Top Cell SZKD110_256X9X8CM2
*** Wed Nov 27 14:57:46 2024

*.BIPOLAR
.PARAM


.GLOBAL VCC GND 

.SUBCKT SZKD_DCAP_AR2_BCD4_DO
MP1 VCC GND VCC VCC P_12_LLL110E W=1.5U L=0.64U M=8
MP0 VCC GND VCC VCC P_12_LLL110E W=2U L=0.64U M=18
.ENDS

.SUBCKT SZKD_DCAP_AR2_BCD4_DI
MP1 VCC GND VCC VCC P_12_LLL110E W=1.5U L=0.64U M=4
MP0 VCC GND VCC VCC P_12_LLL110E W=2U L=0.64U M=18
.ENDS

.SUBCKT SZKD_ND2 Y A B MP=1 LP=0.12U WP=0.16U MN=1 LN=0.12U WN=0.16U
MN1 NET24 B GND GND N_12_LLL110E W=WN L=LN M=MN
MN0 Y A NET24 GND N_12_LLL110E W=WN L=LN M=MN
MP1 Y A VCC VCC P_12_LLL110E W=WP L=LP M=MP
MP0 Y B VCC VCC P_12_LLL110E W=WP L=LP M=MP
.ENDS

.SUBCKT SZKD_TG D S GN GP MP=1 LP=0.12U WP=0.16U MN=1 LN=0.12U WN=0.16U
MN0 S GN D GND N_12_LLL110E W=WN L=LN M=MN
MP0 S GP D VCC P_12_LLL110E W=WP L=LP M=MP
.ENDS

.SUBCKT SZKD_IVT O I MP=1 LP=0.12U WP=0.32U MN=1 LN=0.12U WN=0.16U
MN1 O I GND GND N_12_LLL110E W=WN L=LN M=MN
MP1 O I VCC VCC P_12_LLL110E W=WP L=LP M=MP
.ENDS

.SUBCKT SZKD_DI_BW WDL WDLB ICSB RT WEBQ DI WEB
XI27 DIB DID CSI SZKD_ND2 WP=0.36U WN=0.36U
XI19 WDIB NET084 NET051 SZKD_ND2 WP=0.36U WN=0.36U
XI7 WDI DIB NET051 SZKD_ND2 WP=0.36U WN=0.36U
XI9 SWDIB NET29 IP IPB SZKD_TG WP=0.28U WN=0.28U
XI6 NET33 WDI IPB IP SZKD_TG WP=0.36U WN=0.36U
XI5 SWDI NET33 IP IPB SZKD_TG WP=0.28U WN=0.28U
XI8 NET29 WDIB IPB IP SZKD_TG WP=0.36U WN=0.36U
XI21 NET051 WEBQ SZKD_IVT WP=0.28U WN=0.28U
XI24 IP IPB SZKD_IVT WP=0.56U WN=0.28U
XI26 DID NET081 SZKD_IVT LP=0.18U WP=0.28U LN=0.18U WN=0.28U
XI20 WEBQ NET43 SZKD_IVT WP=7.2U WN=3.6U
XI23 IPB RT SZKD_IVT WP=0.36U WN=0.28U
XI25 NET081 DI SZKD_IVT LP=0.18U WP=0.28U LN=0.18U WN=0.28U
XI16 CSI ICSB SZKD_IVT WP=0.28U WN=0.28U
XI15 NET43 WEB SZKD_IVT WP=1.8U WN=0.88U
XI14 NET084 DIB SZKD_IVT WP=0.56U WN=0.28U
XI12 WDLB IWDL SZKD_IVT WP=1.2U WN=3.0U
XI11 IWDL NET29 SZKD_IVT WP=0.72U WN=0.36U
XI10 SWDIB IWDL SZKD_IVT WP=0.28U WN=0.28U
XI4 SWDI IWDLB SZKD_IVT WP=0.28U WN=0.28U
XI3 IWDLB NET33 SZKD_IVT WP=0.72U WN=0.36U
XI1 WDL IWDLB SZKD_IVT WP=1.2U WN=3.0U
.ENDS

.SUBCKT SZKD_DSA DO RBL RBLB BL_PRCHB SAEN
XI23 IDOB NET077 SAENB SAENF SZKD_TG WP=0.28U WN=0.28U
MN9 GND GND GND GND N_12_LLL110E W=1U L=0.12U M=1
MN7 GND DLL GND GND N_12_LLL110E W=2U L=0.12U M=1
MN8 GND GND GND GND N_12_LLL110E W=1U L=0.12U M=1
MN5 IDOB NET055 GND GND N_12_LLL110E W=1.5U L=0.12U M=1
MN3 NSINK GND GND GND N_12_LLL110E W=2U L=0.16U M=1
MN4 NSINK GND GND GND N_12_LLL110E W=2U L=0.16U M=1
MN2 NSINK ENSAI GND GND N_12_LLL110E W=4U L=0.12U M=1
MN1 DLL DLLB NSINK GND N_12_LLL110E W=4U L=0.16U M=1
MN0 DLLB DLL NSINK GND N_12_LLL110E W=4U L=0.16U M=1
XI21 IDO IDOB SZKD_IVT WP=0.56U WN=0.28U
XI28 NET077 IDO SZKD_IVT WP=0.28U WN=0.28U
XI27 NET055 DLLB SZKD_IVT WP=3.0U WN=2.0U
XI24 SAENF SAENB SZKD_IVT WP=0.56U WN=0.28U
XI8 ENSAI SAENB SZKD_IVT WP=1.2U WN=0.5U
XI7 SAENB SAEN SZKD_IVT WP=0.40U WN=0.32U
XI16 DO IDOB SZKD_IVT WP=10.0U WN=4.0U
XI3 DLPRCHB NET023 SZKD_IVT WP=0.8U WN=0.4U
XI4 NET023 BL_PRCHB SZKD_IVT WP=0.40U WN=0.32U
MP10 VCC VCC DLL VCC P_12_LLL110E W=1.5U L=0.13U M=1
MP11 VCC VCC DLLB VCC P_12_LLL110E W=1.5U L=0.13U M=1
MP9 IDOB DLL VCC VCC P_12_LLL110E W=3U L=0.12U M=1
MP7 VCC VCC RBL VCC P_12_LLL110E W=1.5U L=0.13U M=1
MP8 VCC VCC RBLB VCC P_12_LLL110E W=1.5U L=0.13U M=1
MP6 DLLB ENSAI RBLB VCC P_12_LLL110E W=1.5U L=0.13U M=1
MP5 DLL ENSAI RBL VCC P_12_LLL110E W=1.5U L=0.13U M=1
MP3 DLL DLLB VCC VCC P_12_LLL110E W=1.2U L=0.12U M=1
MP4 DLLB DLL VCC VCC P_12_LLL110E W=1.2U L=0.12U M=1
MP2 RBL DLPRCHB RBLB VCC P_12_LLL110E W=2U L=0.12U M=1
MP1 RBL DLPRCHB VCC VCC P_12_LLL110E W=2U L=0.12U M=1
MP0 RBLB DLPRCHB VCC VCC P_12_LLL110E W=2U L=0.12U M=1
.ENDS

.SUBCKT SZKD_NR2_BAL Y A B MP=1 LP=0.12U WP=0.16U MN=1 LN=0.12U WN=0.16U
MN1 Y B GND GND N_12_LLL110E W=WN L=LN M=MN
MN0 Y A GND GND N_12_LLL110E W=WN L=LN M=MN
MP2 NET026 A VCC VCC P_12_LLL110E W=WP L=LP M=MP
MP3 Y B NET026 VCC P_12_LLL110E W=WP L=LP M=MP
MP1 NET35 B VCC VCC P_12_LLL110E W=WP L=LP M=MP
MP0 Y A NET35 VCC P_12_LLL110E W=WP L=LP M=MP
.ENDS

.SUBCKT SZKD_BTKWL_BCD4 AXPA0 AXPA1 AXPB0 AXPB1 AXPB2 AXPB3 AXPC0 AXPC1 AXPC2
+AXPC3 AXPD0 AXPD1 AXPD2 AXPD3 BTKWL BXPA0 BXPA1 BXPB0 BXPB1 BXPB2 BXPB3 BXPC0
+BXPC1 BXPC2 BXPC3 BXPD0 BXPD1 BXPD2 BXPD3 WREND
XI33 NET0107 NET46 NET50 SZKD_NR2_BAL WP=2.0U WN=1.0U
MP0 NET094 NET0120 VCC VCC P_12_LLL110E W=0.28U L=0.12U M=1
XI71 BENB NET094 SZKD_IVT WP=0.56U WN=0.28U
XI8 BEN BENB SZKD_IVT WP=0.56U WN=0.28U
XI11 BTKWL NET0107 SZKD_IVT LP=0.13U WP=12.0U WN=4.0U
XI15 NET46 BXPA0 BEN BENB SZKD_TG WP=0.56U WN=0.28U
XI4 NET50 BXPA1 BEN BENB SZKD_TG WP=0.56U WN=0.28U
MN1 NET46 BENB GND GND N_12_LLL110E W=0.28U L=0.12U M=1
MN4 NET0120 NET0120 GND GND N_12_LLL110E W=0.28U L=0.12U M=1
MN0 NET50 BENB GND GND N_12_LLL110E W=0.28U L=0.12U M=1
.ENDS

.SUBCKT SZKD_ATKWL_BCD4 ATKWL AXPA0 AXPA1 AXPB0 AXPB1 AXPB2 AXPB3 AXPC0 AXPC1
+AXPC2 AXPC3 AXPD0 AXPD1 AXPD2 AXPD3 BXPA0 BXPA1 BXPB0 BXPB1 BXPB2 BXPB3 BXPC0
+BXPC1 BXPC2 BXPC3 BXPD0 BXPD1 BXPD2 BXPD3 WREND
XI33 NET34 NET46 NET50 SZKD_NR2_BAL WP=2.0U WN=1.0U
MP0 NET094 NET0120 VCC VCC P_12_LLL110E W=0.28U L=0.12U M=1
XI34 AENB NET094 SZKD_IVT WP=0.56U WN=0.28U
XI8 AEN AENB SZKD_IVT WP=0.56U WN=0.28U
XI11 ATKWL NET34 SZKD_IVT LP=0.13U WP=12.0U WN=4.0U
XI15 NET46 AXPA0 AEN AENB SZKD_TG WP=0.56U WN=0.28U
XI4 NET50 AXPA1 AEN AENB SZKD_TG WP=0.56U WN=0.28U
MN1 NET46 AENB GND GND N_12_LLL110E W=0.28U L=0.12U M=1
MN4 NET0120 NET0120 GND GND N_12_LLL110E W=0.28U L=0.12U M=1
MN0 NET50 AENB GND GND N_12_LLL110E W=0.28U L=0.12U M=1
.ENDS

.SUBCKT SZKD_BFSM_AR2 BWLE RT ICSB CKB CSBN WREND
MP3 RT PM VCC VCC P_12_LLL110E W=14U L=0.12U M=1
MP2 RT ND3 VCC VCC P_12_LLL110E W=1.4U L=0.12U M=1
MP1 PM NET057 VCC VCC P_12_LLL110E W=0.32U L=0.2U M=1
MP0 PM BLT VCC VCC P_12_LLL110E W=5U L=0.12U M=1
XI4 NET7 ICKB CSI SZKD_ND2 WP=0.32U WN=0.32U
MN4 RT ND3 NET060 GND N_12_LLL110E W=7U L=0.12U M=1
MN5 NET060 PM GND GND N_12_LLL110E W=7U L=0.12U M=1
MN3 NET059 BLT GND GND N_12_LLL110E W=0.32U L=0.12U M=1
MN2 PM NET057 NET059 GND N_12_LLL110E W=0.32U L=0.12U M=1
MN1 NET8 CKPD GND GND N_12_LLL110E W=7.2U L=0.12U M=1
MN0 PM ICK NET8 GND N_12_LLL110E W=7.2U L=0.12U M=1
XI45 ND1 ND0 SZKD_IVT WP=0.28U WN=0.28U
MP111 BLT WREND VCC VCC P_12_LLL110E W=0.3U L=0.12U M=1
MP222 BLT  BWLE VCC VCC P_12_LLL110E  W=1.2U L=0.12U M=1
MN111 BLT  WREND NET111222 GND N_12_LLL110E W=1.5U L=0.12U M=1
MN222 NET111222 BWLE GND GND   N_12_LLL110E W=1.5U L=0.12U M=1

XI46 ND2 ND1 SZKD_IVT WP=0.56U WN=0.28U
XI21 ND3 ND2 SZKD_IVT WP=1.0U WN=0.5U
XI16 ICSB CSI SZKD_IVT WP=14.0U WN=7.0U
XI13 BWLE PM SZKD_IVT WP=10.02U WN=4.0U
XI17 ND0 PM SZKD_IVT WP=0.56U WN=0.28U
XI10 NET057 PM SZKD_IVT WP=0.70U WN=0.28U
XI6 CSI CSBN SZKD_IVT WP=3.0U WN=1.2U
XI5 CKPD NET7 SZKD_IVT WP=0.96U WN=0.48U
XI3 ICKB ICK SZKD_IVT WP=0.56U WN=0.28U
XI2 ICK NET26 SZKD_IVT WP=2.4U WN=0.8U
XI1 NET26 CKB SZKD_IVT WP=1.0U WN=1.0U
.ENDS

.SUBCKT SZKD_NR2 Y A B MP=1 LP=0.12U WP=0.16U MN=1 LN=0.12U WN=0.16U
MN1 Y B GND GND N_12_LLL110E W=WN L=LN M=MN
MN0 Y A GND GND N_12_LLL110E W=WN L=LN M=MN
MP1 NET35 B VCC VCC P_12_LLL110E W=WP L=LP M=MP
MP0 Y A NET35 VCC P_12_LLL110E W=WP L=LP M=MP
.ENDS

.SUBCKT SZKD_BDUMWR_AR2 TIE0 TIE1 WBLB WDS0 WDS1 YLSPB0 YLSPB1
XI19 NET051 YLSPB1 YLSPB0 SZKD_NR2 WP=1.0U WN=0.3U
XI85 DBLYS NET051 SZKD_IVT WP=1.0U WN=0.5U
XI81 NET099 WDS1 SZKD_IVT WP=0.28U WN=0.28U
XI80 DS1 NET099 SZKD_IVT WP=0.28U WN=0.28U
XI25 DS0 NET038 SZKD_IVT WP=0.28U WN=0.28U
XI26 NET038 WDS0 SZKD_IVT WP=0.28U WN=0.28U
MN31 NET0111 TIE1 GND GND N_12_LLL110E W=0.32U L=0.12U M=1
MN29 NET0111 DS1 GND GND N_12_LLL110E W=3U L=0.12U M=1
MN18 WBLB DBLYS NET0111 GND N_12_LLL110E W=1.8U L=0.12U M=1
MN8 TIE0 NET0100 GND GND N_12_LLL110E W=0.28U L=0.12U M=1
MN30 NET0111 DS0 GND GND N_12_LLL110E W=1U L=0.12U M=1
MN1 NET026 NET026 GND GND N_12_LLL110E W=0.28U L=0.12U M=1
MP8 WBLB DBLYS VCC VCC P_12_LLL110E W=5U L=0.12U M=1
MP2 NET0100 NET0100 VCC VCC P_12_LLL110E W=0.28U L=0.12U M=1
MP1 TIE1 NET026 VCC VCC P_12_LLL110E W=0.28U L=0.12U M=1
.ENDS

.SUBCKT SZKD_NR3 Y A B C MP=1 LP=0.12U WP=0.16U MN=1 LN=0.12U WN=0.16U
MN2 Y C GND GND N_12_LLL110E W=WN L=LN M=MN
MN1 Y B GND GND N_12_LLL110E W=WN L=LN M=MN
MN0 Y A GND GND N_12_LLL110E W=WN L=LN M=MN
MP2 NET38 C VCC VCC P_12_LLL110E W=WP L=LP M=MP
MP1 NET35 B NET38 VCC P_12_LLL110E W=WP L=LP M=MP
MP0 Y A NET35 VCC P_12_LLL110E W=WP L=LP M=MP
.ENDS

.SUBCKT SZKD_BYPRED12LS YLSPB0 YLSPB1 BWLE CKB CSBN BY0
XI5 BYLTHEN BWLE CKB CSBN SZKD_NR3 WP=2.0U WN=0.32U
XI7 IBY0B NET13 BYLTHENB BYLTHEN SZKD_TG WP=0.28U WN=0.28U
XI3 NET13 BY0B BYLTHEN BYLTHENB SZKD_TG WP=1.2U WN=0.6U
XI14 NET031 BWLE BY0P SZKD_ND2 WP=2.4U WN=2.4U
XI2 NET19 BWLE BY0N SZKD_ND2 WP=2.4U WN=2.4U
XI15 YLSPB1 NET031 SZKD_IVT WP=10.0U WN=4.0U
XI11 BYLTHENB BYLTHEN SZKD_IVT WP=0.64U WN=0.32U
XI9 BY0N BY0P SZKD_IVT WP=1.0U WN=0.5U
XI8 IBY0B BY0P SZKD_IVT WP=0.28U WN=0.28U
XI6 BY0P NET13 SZKD_IVT WP=1.2U WN=0.6U
XI4 BY0B BY0 SZKD_IVT WP=1.2U WN=0.6U
XI13 YLSPB0 NET19 SZKD_IVT WP=10.0U WN=4.0U
.ENDS

.SUBCKT SZKD_ATKOPTION DS1 DS2 DS3 ATKBL DFPD TIE0 TIE1 ATKWL RDS0 RDS1 RDS2
+RDS3
XI13 NET051 RDS0 SZKD_IVT WP=0.28U WN=0.28U
XI14 NET074 NET051 SZKD_IVT WP=0.28U WN=0.28U
XI10 DS3 NET030 SZKD_IVT WP=0.28U WN=0.28U
XI9 NET030 RDS3 SZKD_IVT WP=0.28U WN=0.28U
XI8 NET032 RDS2 SZKD_IVT WP=0.28U WN=0.28U
XI7 DS2 NET032 SZKD_IVT WP=0.28U WN=0.28U
XI5 NET026 RDS1 SZKD_IVT WP=0.28U WN=0.28U
XI6 DS1 NET026 SZKD_IVT WP=0.28U WN=0.28U
MN8 DFPD GND GND GND N_12_LLL110E W=0.28U L=0.14U M=1
MN5 ATKBL GND GND GND N_12_LLL110E W=0.2U L=0.2U M=1
MN6 GND GND GND GND N_12_LLL110E W=0.2U L=0.2U M=1
MN3 NET054 ATKWL GND GND N_12_LLL110E W=0.36U L=0.12U M=1
MN4 ATKBL ATKWL NET054 GND N_12_LLL110E W=0.36U L=0.12U M=1
MN7 GND GND GND GND N_12_LLL110E W=0.28U L=0.14U M=1
MN2 DFPD NET074 GND GND N_12_LLL110E W=0.28U L=0.14U M=1
MN1 TIE0 NET029 GND GND N_12_LLL110E W=0.28U L=0.12U M=1
MN0 NET4 NET4 GND GND N_12_LLL110E W=0.28U L=0.12U M=1
MP1 NET029 NET029 VCC VCC P_12_LLL110E W=0.28U L=0.12U M=1
MP0 TIE1 NET4 VCC VCC P_12_LLL110E W=0.28U L=0.12U M=1
.ENDS

.SUBCKT SZKD_ND3 Y A B C MP=1 LP=0.12U WP=0.16U MN=1 LN=0.12U WN=0.16U
MN2 NET21 C GND GND N_12_LLL110E W=WN L=LN M=MN
MN1 NET24 B NET21 GND N_12_LLL110E W=WN L=LN M=MN
MN0 Y A NET24 GND N_12_LLL110E W=WN L=LN M=MN
MP2 Y C VCC VCC P_12_LLL110E W=WP L=LP M=MP
MP1 Y A VCC VCC P_12_LLL110E W=WP L=LP M=MP
MP0 Y B VCC VCC P_12_LLL110E W=WP L=LP M=MP
.ENDS

.SUBCKT SZKD_BXPRED12LS BXPA0 BXPA1 BWLE CKB CSBN BX0 WREND
XI16 NET031 BWLE NET029 BX0P SZKD_ND3 WP=2.0U WN=3.0U
XI17 NET19 BWLE NET029 BX0N SZKD_ND3 WP=2.0U WN=3.0U
XI5 BXLTHEN BWLE CKB CSBN SZKD_NR3 WP=2.0U WN=0.32U
XI7 IBX0B NET13 BXLTHENB BXLTHEN SZKD_TG WP=0.28U WN=0.28U
XI3 NET13 BX0B BXLTHEN BXLTHENB SZKD_TG WP=1.2U WN=0.6U
XI19 NET029 WREND SZKD_IVT WP=1.2U WN=0.8U
XI15 BXPA1 NET031 SZKD_IVT WP=9.6U WN=3.2U
XI11 BXLTHENB BXLTHEN SZKD_IVT WP=0.64U WN=0.32U
XI9 BX0N BX0P SZKD_IVT WP=1.0U WN=0.5U
XI8 IBX0B BX0P SZKD_IVT WP=0.28U WN=0.28U
XI6 BX0P NET13 SZKD_IVT WP=1.2U WN=0.6U
XI4 BX0B BX0 SZKD_IVT WP=1.2U WN=0.6U
XI13 BXPA0 NET19 SZKD_IVT WP=9.6U WN=3.2U
.ENDS

.SUBCKT SZKD_BCNTRL_AR2 BXPA0 BXPA1 ATKBL ATKWL BWLE CKB CSBN DFPD DS1 DS2 DS3
+ICSB RDS0 RDS1 RDS2 RDS3 RT RTIE0 RTIE1 WBLB WDS0 WDS1 WREND WTIE0 WTIE1
+YLSPB0 YLSPB1 BX0 BY0
MP0 VCC GND VCC VCC P_12_LLL110E W=1.5U L=0.64U M=30
XIFSM BWLE RT ICSB CKB CSBN WREND SZKD_BFSM_AR2
XIDUMWR WTIE0 WTIE1 WBLB WDS0 WDS1 YLSPB0 YLSPB1 SZKD_BDUMWR_AR2
XIYS YLSPB0 YLSPB1 BWLE CKB CSBN BY0 SZKD_BYPRED12LS
XIATKOPTION DS1 DS2 DS3 ATKBL DFPD RTIE0 RTIE1 ATKWL RDS0 RDS1 RDS2 RDS3
+SZKD_ATKOPTION
XIXPA BXPA0 BXPA1 BWLE CKB CSBN BX0 WREND SZKD_BXPRED12LS
.ENDS

.SUBCKT SZKD_ND23 YA YB A B I MP=1 LP=0.12U WP=0.16U MN=1 LN=0.12U WN=0.16U
MN2 YB B INT GND N_12_LLL110E W=WN L=LN M=MN
MN1 INT I GND GND N_12_LLL110E W=WN L=LN M=MN
MN0 YA A INT GND N_12_LLL110E W=WN L=LN M=MN
MP3 YB I VCC VCC P_12_LLL110E W=WP L=LP M=MP
MP2 YB B VCC VCC P_12_LLL110E W=WP L=LP M=MP
MP1 YA A VCC VCC P_12_LLL110E W=WP L=LP M=MP
MP0 YA I VCC VCC P_12_LLL110E W=WP L=LP M=MP
.ENDS

.SUBCKT SZKD_BXPRED24_AR2 BXPX0 BXPX1 BXPX2 BXPX3 BWLE CKB CSBN ICSB RT TIE0
+YLSPB0 YLSPB1 BX0 BX1
MP1 VCC GND VCC VCC P_12_LLL110E W=1.5U L=0.64U M=5
MP0 NET045 NET045 VCC VCC P_12_LLL110E W=0.28U L=0.12U M=1
MN0 TIE0 NET045 GND GND N_12_LLL110E W=0.28U L=0.12U M=1
XI27 NET049 NET046 BX0P BX0N BX1N SZKD_ND23 WP=1.75U WN=1.75U
XI26 NET031 NET19 BX0P BX0N BX1P SZKD_ND23 WP=1.75U WN=1.75U
XI5 BXLTHEN BWLE CKB CSBN SZKD_NR3 WP=2.0U WN=0.32U
XI16 IBX0B NET028 BXLTHENB BXLTHEN SZKD_TG WP=0.28U WN=0.28U
XI17 NET028 BX0B BXLTHEN BXLTHENB SZKD_TG WP=1.2U WN=0.6U
XI7 IBX1B NET13 BXLTHENB BXLTHEN SZKD_TG WP=0.28U WN=0.28U
XI3 NET13 BX1B BXLTHEN BXLTHENB SZKD_TG WP=1.2U WN=0.6U
XI20 BXPX1 NET049 SZKD_IVT WP=6.0U WN=2.4U
XI21 BX0N BX0P SZKD_IVT WP=1.4U WN=0.7U
XI22 IBX0B BX0P SZKD_IVT WP=0.28U WN=0.28U
XI23 BX0P NET028 SZKD_IVT WP=1.8U WN=0.9U
XI24 BX0B BX0 SZKD_IVT WP=1.2U WN=0.6U
XI25 BXPX0 NET046 SZKD_IVT WP=6.0U WN=2.4U
XI15 BXPX3 NET031 SZKD_IVT WP=6.0U WN=2.4U
XI11 BXLTHENB BXLTHEN SZKD_IVT WP=0.64U WN=0.32U
XI9 BX1N BX1P SZKD_IVT WP=1.2U WN=0.6U
XI8 IBX1B BX1P SZKD_IVT WP=0.28U WN=0.28U
XI6 BX1P NET13 SZKD_IVT WP=1.4U WN=0.7U
XI4 BX1B BX1 SZKD_IVT WP=1.2U WN=0.6U
XI13 BXPX2 NET19 SZKD_IVT WP=6.0U WN=2.4U
.ENDS

.SUBCKT SZKD_AXPRED24_AR2 AXPX0 AXPX1 AXPX2 AXPX3 AWLE BL_PRCHB CKA CSAN SAEN
+TIE0 YLSPA0 YLSPA1 AX0 AX1
MP1 VCC GND VCC VCC P_12_LLL110E W=1.5U L=0.64U M=10
MP0 NET045 NET045 VCC VCC P_12_LLL110E W=0.28U L=0.12U M=1
MN0 TIE0 NET045 GND GND N_12_LLL110E W=0.28U L=0.12U M=1
XI27 NET049 NET046 AX0P AX0N AX1N SZKD_ND23 WP=1.75U WN=1.75U
XI26 NET031 NET19 AX0P AX0N AX1P SZKD_ND23 WP=1.75U WN=1.75U
XI5 AXLTHEN AWLE CKA CSAN SZKD_NR3 WP=2.0U WN=0.32U
XI16 IAX0B NET028 AXLTHENB AXLTHEN SZKD_TG WP=0.28U WN=0.28U
XI17 NET028 AX0B AXLTHEN AXLTHENB SZKD_TG WP=1.2U WN=0.6U
XI7 IAX1B NET13 AXLTHENB AXLTHEN SZKD_TG WP=0.28U WN=0.28U
XI3 NET13 AX1B AXLTHEN AXLTHENB SZKD_TG WP=1.2U WN=0.6U
XI20 AXPX1 NET049 SZKD_IVT WP=6.0U WN=2.4U
XI21 AX0N AX0P SZKD_IVT WP=1.4U WN=0.7U
XI22 IAX0B AX0P SZKD_IVT WP=0.28U WN=0.28U
XI23 AX0P NET028 SZKD_IVT WP=1.8U WN=0.9U
XI24 AX0B AX0 SZKD_IVT WP=1.2U WN=0.6U
XI25 AXPX0 NET046 SZKD_IVT WP=6.0U WN=2.4U
XI15 AXPX3 NET031 SZKD_IVT WP=6.0U WN=2.4U
XI11 AXLTHENB AXLTHEN SZKD_IVT WP=0.64U WN=0.32U
XI9 AX1N AX1P SZKD_IVT WP=1.2U WN=0.6U
XI8 IAX1B AX1P SZKD_IVT WP=0.28U WN=0.28U
XI6 AX1P NET13 SZKD_IVT WP=1.4U WN=0.7U
XI4 AX1B AX1 SZKD_IVT WP=1.2U WN=0.6U
XI13 AXPX2 NET19 SZKD_IVT WP=6.0U WN=2.4U
.ENDS

.SUBCKT SZKD_DPCELL_BLDMY BLBPA BLBPB BLPA BLPB TKWL
MN2 NET30 TKWL GND GND N_PG339_LLL110E W=0.18U L=0.165U M=1
MN1 GND TKWL GND GND N_PG339_LLL110E W=0.18U L=0.165U M=1
MN0 GND GND GND GND N_PD339_LLL110E W=0.51U L=0.13U M=1
MP0 VCC GND VCC VCC P_L339_LLL110E W=0.165U L=0.12U M=1
.ENDS

.SUBCKT SZKD_DPCELL_BLDMYX2 BLBPA0 BLBPA1 BLBPB0 BLBPB1 BLPA0 BLPA1 BLPB0 BLPB1
+TKWL
XIBLDMYR BLBPA1 BLBPB1 BLPA1 BLPB1 TKWL SZKD_DPCELL_BLDMY
XIBLDMYL BLBPA0 BLBPB0 BLPA0 BLPB0 TKWL SZKD_DPCELL_BLDMY
.ENDS

.SUBCKT SZKD_TKCELLDMY2X2_BOT ATKBL DMBLBPA DMBLPA0 DMBLPA1 DMBLPB FWBLB WLPA0
+WLPA1 WLPB0 WLPB1
MP9 NET262 NET274 VCC VCC P_L339_LLL110E W=0.165U L=0.12U M=1
MP8 NET274 NET262 VCC VCC P_L339_LLL110E W=0.165U L=0.12U M=1
MP7 NET0279 NET306 VCC VCC P_L339_LLL110E W=0.165U L=0.12U M=1
MP6 NET306 NET0279 VCC VCC P_L339_LLL110E W=0.165U L=0.12U M=1
MP5 NET310 NET322 VCC VCC P_L339_LLL110E W=0.165U L=0.12U M=1
MP4 NET322 NET310 VCC VCC P_L339_LLL110E W=0.165U L=0.12U M=1
MP3 NET278 NET290 VCC VCC P_L339_LLL110E W=0.165U L=0.12U M=1
MP1 NET290 NET278 VCC VCC P_L339_LLL110E W=0.165U L=0.12U M=1
MP0 VCC GND VCC VCC P_L339_LLL110E W=0.165U L=0.12U M=1
MP2 VCC GND VCC VCC P_L339_LLL110E W=0.165U L=0.12U M=1
MN21 NET262 NET274 GND GND N_PD339_LLL110E W=0.51U L=0.13U M=1
MN20 NET274 NET262 GND GND N_PD339_LLL110E W=0.51U L=0.13U M=1
MN19 NET0279 NET306 GND GND N_PD339_LLL110E W=0.51U L=0.13U M=1
MN18 NET306 NET0279 GND GND N_PD339_LLL110E W=0.51U L=0.13U M=1
MN12 NET322 NET310 GND GND N_PD339_LLL110E W=0.51U L=0.13U M=1
MN13 NET310 NET322 GND GND N_PD339_LLL110E W=0.51U L=0.13U M=1
MN11 NET278 NET290 GND GND N_PD339_LLL110E W=0.51U L=0.13U M=1
MN10 NET290 NET278 GND GND N_PD339_LLL110E W=0.51U L=0.13U M=1
MN0 GND GND GND GND N_PD339_LLL110E W=0.51U L=0.13U M=1
MN6 GND GND GND GND N_PD339_LLL110E W=0.51U L=0.13U M=1
MN29 GND GND NET262 GND N_PG339_LLL110E W=0.18U L=0.165U M=1
MN28 DMBLPA0 GND NET262 GND N_PG339_LLL110E W=0.18U L=0.165U M=1
MN27 DMBLBPA GND NET274 GND N_PG339_LLL110E W=0.18U L=0.165U M=1
MN26 GND GND NET274 GND N_PG339_LLL110E W=0.18U L=0.165U M=1
MN25 FWBLB WLPB0 NET294 GND N_PG339_LLL110E W=0.18U L=0.165U M=1
MN24 ATKBL GND NET0279 GND N_PG339_LLL110E W=0.18U L=0.165U M=1
MN23 ATKBL GND NET306 GND N_PG339_LLL110E W=0.18U L=0.165U M=1
MN22 DMBLPB WLPB0 NET306 GND N_PG339_LLL110E W=0.18U L=0.165U M=1
MN17 DMBLPB WLPB1 NET310 GND N_PG339_LLL110E W=0.18U L=0.165U M=1
MN16 DMBLPA1 GND NET310 GND N_PG339_LLL110E W=0.18U L=0.165U M=1
MN14 FWBLB WLPB1 NET0175 GND N_PG339_LLL110E W=0.18U L=0.165U M=1
MN15 ATKBL GND NET322 GND N_PG339_LLL110E W=0.18U L=0.165U M=1
MN9 GND GND NET278 GND N_PG339_LLL110E W=0.18U L=0.165U M=1
MN2 DMBLBPA GND NET278 GND N_PG339_LLL110E W=0.18U L=0.165U M=1
MN1 DMBLPA0 GND NET290 GND N_PG339_LLL110E W=0.18U L=0.165U M=1
MN3 GND GND NET290 GND N_PG339_LLL110E W=0.18U L=0.165U M=1
MN4 GND GND GND GND N_PG339_LLL110E W=0.18U L=0.165U M=1
MN5 GND GND GND GND N_PG339_LLL110E W=0.18U L=0.165U M=1
MN8 GND GND GND GND N_PG339_LLL110E W=0.18U L=0.165U M=1
MN7 GND GND GND GND N_PG339_LLL110E W=0.18U L=0.165U M=1
.ENDS

.SUBCKT SZKD_TKCELLDMY2X2 ATKBL DMBLBPA DMBLPA0 DMBLPA1 DMBLPB FWBLB WLPA0
+WLPA1 WLPB0 WLPB1
MP9 NET262 NET274 VCC VCC P_L339_LLL110E W=0.165U L=0.12U M=1
MP8 NET274 NET262 VCC VCC P_L339_LLL110E W=0.165U L=0.12U M=1
MP7 NET0279 NET306 VCC VCC P_L339_LLL110E W=0.165U L=0.12U M=1
MP6 NET306 NET0279 VCC VCC P_L339_LLL110E W=0.165U L=0.12U M=1
MP5 NET310 NET322 VCC VCC P_L339_LLL110E W=0.165U L=0.12U M=1
MP4 NET322 NET310 VCC VCC P_L339_LLL110E W=0.165U L=0.12U M=1
MP3 NET278 NET290 VCC VCC P_L339_LLL110E W=0.165U L=0.12U M=1
MP1 NET290 NET278 VCC VCC P_L339_LLL110E W=0.165U L=0.12U M=1
MP0 VCC GND VCC VCC P_L339_LLL110E W=0.165U L=0.12U M=1
MP2 VCC GND VCC VCC P_L339_LLL110E W=0.165U L=0.12U M=1
MN21 NET262 NET274 GND GND N_PD339_LLL110E W=0.51U L=0.13U M=1
MN20 NET274 NET262 GND GND N_PD339_LLL110E W=0.51U L=0.13U M=1
MN19 NET0279 NET306 GND GND N_PD339_LLL110E W=0.51U L=0.13U M=1
MN18 NET306 NET0279 GND GND N_PD339_LLL110E W=0.51U L=0.13U M=1
MN12 NET322 NET310 GND GND N_PD339_LLL110E W=0.51U L=0.13U M=1
MN13 NET310 NET322 GND GND N_PD339_LLL110E W=0.51U L=0.13U M=1
MN11 NET278 NET290 GND GND N_PD339_LLL110E W=0.51U L=0.13U M=1
MN10 NET290 NET278 GND GND N_PD339_LLL110E W=0.51U L=0.13U M=1
MN0 GND GND GND GND N_PD339_LLL110E W=0.51U L=0.13U M=1
MN6 GND GND GND GND N_PD339_LLL110E W=0.51U L=0.13U M=1
MN29 GND GND NET262 GND N_PG339_LLL110E W=0.18U L=0.165U M=1
MN28 DMBLPA0 GND NET262 GND N_PG339_LLL110E W=0.18U L=0.165U M=1
MN27 DMBLBPA GND NET274 GND N_PG339_LLL110E W=0.18U L=0.165U M=1
MN26 GND GND NET274 GND N_PG339_LLL110E W=0.18U L=0.165U M=1
MN25 FWBLB WLPB0 NET294 GND N_PG339_LLL110E W=0.18U L=0.165U M=1
MN24 ATKBL GND NET0279 GND N_PG339_LLL110E W=0.18U L=0.165U M=1
MN23 DMBLPA1 GND NET306 GND N_PG339_LLL110E W=0.18U L=0.165U M=1
MN22 DMBLPB WLPB0 NET306 GND N_PG339_LLL110E W=0.18U L=0.165U M=1
MN17 DMBLPB WLPB1 NET310 GND N_PG339_LLL110E W=0.18U L=0.165U M=1
MN16 DMBLPA1 GND NET310 GND N_PG339_LLL110E W=0.18U L=0.165U M=1
MN14 FWBLB WLPB1 NET0175 GND N_PG339_LLL110E W=0.18U L=0.165U M=1
MN15 ATKBL GND NET322 GND N_PG339_LLL110E W=0.18U L=0.165U M=1
MN9 GND GND NET278 GND N_PG339_LLL110E W=0.18U L=0.165U M=1
MN2 DMBLBPA GND NET278 GND N_PG339_LLL110E W=0.18U L=0.165U M=1
MN1 DMBLPA0 GND NET290 GND N_PG339_LLL110E W=0.18U L=0.165U M=1
MN3 GND GND NET290 GND N_PG339_LLL110E W=0.18U L=0.165U M=1
MN4 GND GND GND GND N_PG339_LLL110E W=0.18U L=0.165U M=1
MN5 GND GND GND GND N_PG339_LLL110E W=0.18U L=0.165U M=1
MN8 GND GND GND GND N_PG339_LLL110E W=0.18U L=0.165U M=1
MN7 GND GND GND GND N_PG339_LLL110E W=0.18U L=0.165U M=1
.ENDS

.SUBCKT SZKD_TKCELLDMY2X2_TOP ATKBL DMBLBPA DMBLPA0 DMBLPA1 DMBLPB FWBLB WLPA0
+WLPA1 WLPB0 WLPB1
MP9 NET262 NET274 VCC VCC P_L339_LLL110E W=0.165U L=0.12U M=1
MP8 NET274 NET262 VCC VCC P_L339_LLL110E W=0.165U L=0.12U M=1
MP7 NET0277 NET306 VCC VCC P_L339_LLL110E W=0.165U L=0.12U M=1
MP6 NET306 NET0277 VCC VCC P_L339_LLL110E W=0.165U L=0.12U M=1
MP5 NET310 NET322 VCC VCC P_L339_LLL110E W=0.165U L=0.12U M=1
MP4 NET322 NET310 VCC VCC P_L339_LLL110E W=0.165U L=0.12U M=1
MP3 NET278 NET290 VCC VCC P_L339_LLL110E W=0.165U L=0.12U M=1
MP1 NET290 NET278 VCC VCC P_L339_LLL110E W=0.165U L=0.12U M=1
MP0 VCC GND VCC VCC P_L339_LLL110E W=0.165U L=0.12U M=1
MP2 VCC GND VCC VCC P_L339_LLL110E W=0.165U L=0.12U M=1
MN21 NET262 NET274 GND GND N_PD339_LLL110E W=0.51U L=0.13U M=1
MN20 NET274 NET262 GND GND N_PD339_LLL110E W=0.51U L=0.13U M=1
MN19 NET0277 NET306 GND GND N_PD339_LLL110E W=0.51U L=0.13U M=1
MN18 NET306 NET0277 GND GND N_PD339_LLL110E W=0.51U L=0.13U M=1
MN12 NET322 NET310 GND GND N_PD339_LLL110E W=0.51U L=0.13U M=1
MN13 NET310 NET322 GND GND N_PD339_LLL110E W=0.51U L=0.13U M=1
MN11 NET278 NET290 GND GND N_PD339_LLL110E W=0.51U L=0.13U M=1
MN10 NET290 NET278 GND GND N_PD339_LLL110E W=0.51U L=0.13U M=1
MN0 GND GND GND GND N_PD339_LLL110E W=0.51U L=0.13U M=1
MN6 GND GND GND GND N_PD339_LLL110E W=0.51U L=0.13U M=1
MN29 GND GND NET262 GND N_PG339_LLL110E W=0.18U L=0.165U M=1
MN28 DMBLPA0 GND NET262 GND N_PG339_LLL110E W=0.18U L=0.165U M=1
MN27 DMBLBPA GND NET274 GND N_PG339_LLL110E W=0.18U L=0.165U M=1
MN26 GND GND NET274 GND N_PG339_LLL110E W=0.18U L=0.165U M=1
MN25 FWBLB WLPB0 NET294 GND N_PG339_LLL110E W=0.18U L=0.165U M=1
MN24 ATKBL GND NET0277 GND N_PG339_LLL110E W=0.18U L=0.165U M=1
MN23 DMBLPA1 GND NET306 GND N_PG339_LLL110E W=0.18U L=0.165U M=1
MN22 DMBLPB WLPB0 NET306 GND N_PG339_LLL110E W=0.18U L=0.165U M=1
MN17 DMBLPB WLPB1 NET310 GND N_PG339_LLL110E W=0.18U L=0.165U M=1
MN16 ATKBL GND NET310 GND N_PG339_LLL110E W=0.18U L=0.165U M=1
MN14 FWBLB WLPB1 NET0297 GND N_PG339_LLL110E W=0.18U L=0.165U M=1
MN15 ATKBL GND NET322 GND N_PG339_LLL110E W=0.18U L=0.165U M=1
MN9 GND GND NET278 GND N_PG339_LLL110E W=0.18U L=0.165U M=1
MN2 DMBLBPA GND NET278 GND N_PG339_LLL110E W=0.18U L=0.165U M=1
MN1 DMBLPA0 GND NET290 GND N_PG339_LLL110E W=0.18U L=0.165U M=1
MN3 GND GND NET290 GND N_PG339_LLL110E W=0.18U L=0.165U M=1
MN4 GND GND GND GND N_PG339_LLL110E W=0.18U L=0.165U M=1
MN5 GND GND GND GND N_PG339_LLL110E W=0.18U L=0.165U M=1
MN8 GND GND GND GND N_PG339_LLL110E W=0.18U L=0.165U M=1
MN7 GND GND GND GND N_PG339_LLL110E W=0.18U L=0.165U M=1
.ENDS

.SUBCKT SZKD_TKCELLRD2X2 ATKBL ATKWL DFPD DMBLBPA DMBLPA0 DS0 DS1 DS2 FWBLB
+WLPA0 WLPA1 WLPB0 WLPB1
MP10 VCC GND VCC VCC P_L339_LLL110E W=0.165U L=0.12U M=1
MP11 VCC GND VCC VCC P_L339_LLL110E W=0.165U L=0.12U M=1
MP12 VCC GND VCC VCC P_L339_LLL110E W=0.165U L=0.12U M=1
MP9 NET0214 ATKWL VCC VCC P_L339_LLL110E W=0.165U L=0.12U M=1
MP8 NET0256 ATKWL VCC VCC P_L339_LLL110E W=0.165U L=0.12U M=1
MP7 NET0222 ATKWL VCC VCC P_L339_LLL110E W=0.165U L=0.12U M=1
MP6 NET0250 GND VCC VCC P_L339_LLL110E W=0.165U L=0.12U M=1
MP5 NET0254 GND VCC VCC P_L339_LLL110E W=0.165U L=0.12U M=1
MP4 NET0262 ATKWL VCC VCC P_L339_LLL110E W=0.165U L=0.12U M=1
MP3 NET0257 GND VCC VCC P_L339_LLL110E W=0.165U L=0.12U M=1
MP1 NET0406 ATKWL VCC VCC P_L339_LLL110E W=0.165U L=0.12U M=1
MP0 NET0225 ATKWL VCC VCC P_L339_LLL110E W=0.165U L=0.12U M=1
MP2 NET0204 ATKWL VCC VCC P_L339_LLL110E W=0.165U L=0.12U M=1
MN30 GND GND GND GND N_PD339_LLL110E W=0.51U L=0.13U M=1
MN34 GND GND GND GND N_PD339_LLL110E W=0.51U L=0.13U M=1
MN33 GND GND GND GND N_PD339_LLL110E W=0.51U L=0.13U M=1
MN21 NET0379 ATKWL GND GND N_PD339_LLL110E W=0.51U L=0.13U M=1
MN20 NET568 ATKWL GND GND N_PD339_LLL110E W=0.51U L=0.13U M=1
MN19 NET0208 ATKWL GND GND N_PD339_LLL110E W=0.51U L=0.13U M=1
MN18 NET0395 GND GND GND N_PD339_LLL110E W=0.51U L=0.13U M=1
MN12 NET596 ATKWL GND GND N_PD339_LLL110E W=0.51U L=0.13U M=1
MN13 NET0399 GND GND GND N_PD339_LLL110E W=0.51U L=0.13U M=1
MN11 NET0431 GND GND GND N_PD339_LLL110E W=0.51U L=0.13U M=1
MN10 NET0409 ATKWL GND GND N_PD339_LLL110E W=0.51U L=0.13U M=1
MN0 NET0277 ATKWL GND GND N_PD339_LLL110E W=0.51U L=0.13U M=1
MN6 NET0269 ATKWL GND GND N_PD339_LLL110E W=0.51U L=0.13U M=1
MN35 ATKBL ATKWL DFPD GND N_PG339_LLL110E W=0.18U L=0.165U M=1
MN36 GND ATKWL GND GND N_PG339_LLL110E W=0.18U L=0.165U M=1
MN31 NET0341 ATKWL ATKWL GND N_PG339_LLL110E W=0.18U L=0.165U M=1
MN32 NET0324 ATKWL GND GND N_PG339_LLL110E W=0.18U L=0.165U M=1
MN29 ATKBL DS2 NET0379 GND N_PG339_LLL110E W=0.18U L=0.165U M=1
MN28 ATKBL DS1 NET568 GND N_PG339_LLL110E W=0.18U L=0.165U M=1
MN27 ATKBL DS1 NET568 GND N_PG339_LLL110E W=0.18U L=0.165U M=1
MN26 ATKBL DS2 NET0379 GND N_PG339_LLL110E W=0.18U L=0.165U M=1
MN25 FWBLB WLPB0 NET0384 GND N_PG339_LLL110E W=0.18U L=0.165U M=1
MN24 ATKBL DS1 NET0208 GND N_PG339_LLL110E W=0.18U L=0.165U M=1
MN23 ATKBL DS1 NET0208 GND N_PG339_LLL110E W=0.18U L=0.165U M=1
MN22 NET0393 WLPB0 NET0395 GND N_PG339_LLL110E W=0.18U L=0.165U M=1
MN17 NET0393 WLPB1 NET0399 GND N_PG339_LLL110E W=0.18U L=0.165U M=1
MN16 ATKBL DS0 NET596 GND N_PG339_LLL110E W=0.18U L=0.165U M=1
MN14 FWBLB WLPB1 NET0408 GND N_PG339_LLL110E W=0.18U L=0.165U M=1
MN15 ATKBL DS0 NET596 GND N_PG339_LLL110E W=0.18U L=0.165U M=1
MN9 ATKBL DS2 NET0409 GND N_PG339_LLL110E W=0.18U L=0.165U M=1
MN2 DMBLBPA DS0 NET0431 GND N_PG339_LLL110E W=0.18U L=0.165U M=1
MN1 DMBLPA0 DS0 NET0431 GND N_PG339_LLL110E W=0.18U L=0.165U M=1
MN3 ATKBL DS2 NET0409 GND N_PG339_LLL110E W=0.18U L=0.165U M=1
MN4 ATKBL DS2 NET0269 GND N_PG339_LLL110E W=0.18U L=0.165U M=1
MN5 ATKBL DS2 NET0269 GND N_PG339_LLL110E W=0.18U L=0.165U M=1
MN8 ATKBL DS2 NET0277 GND N_PG339_LLL110E W=0.18U L=0.165U M=1
MN7 ATKBL DS2 NET0277 GND N_PG339_LLL110E W=0.18U L=0.165U M=1
.ENDS

.SUBCKT SZKD_TKCELLWR2X2 ATKBL BTKBL BTKWL DMBLBPA DMBLPA0 DMBLPA1 DMBLPB FWBLB
+WBLB WLPA0 WLPA1 WLPB0 WLPB1
MP10 VCC GND VCC VCC P_L339_LLL110E W=0.165U L=0.12U M=1
MP11 VCC GND VCC VCC P_L339_LLL110E W=0.165U L=0.12U M=1
MP12 VCC GND VCC VCC P_L339_LLL110E W=0.165U L=0.12U M=1
MP9 BTKBL NET568 VCC VCC P_L339_LLL110E W=0.165U L=0.12U M=1
MP8 NET568 BTKBL VCC VCC P_L339_LLL110E W=0.165U L=0.12U M=1
MP7 NET0376 NET584 VCC VCC P_L339_LLL110E W=0.165U L=0.12U M=1
MP6 NET584 NET0376 VCC VCC P_L339_LLL110E W=0.165U L=0.12U M=1
MP5 NET588 NET0400 VCC VCC P_L339_LLL110E W=0.165U L=0.12U M=1
MP4 NET0400 NET588 VCC VCC P_L339_LLL110E W=0.165U L=0.12U M=1
MP3 NET604 BTKBL VCC VCC P_L339_LLL110E W=0.165U L=0.12U M=1
MP1 BTKBL NET604 VCC VCC P_L339_LLL110E W=0.165U L=0.12U M=1
MP0 VCC GND VCC VCC P_L339_LLL110E W=0.165U L=0.12U M=1
MP2 VCC GND VCC VCC P_L339_LLL110E W=0.165U L=0.12U M=1
MN30 GND GND GND GND N_PD339_LLL110E W=0.51U L=0.13U M=1
MN34 GND GND GND GND N_PD339_LLL110E W=0.51U L=0.13U M=1
MN33 GND GND GND GND N_PD339_LLL110E W=0.51U L=0.13U M=1
MN21 NET0354 NET568 GND GND N_PD339_LLL110E W=0.51U L=0.13U M=1
MN20 NET568 BTKBL GND GND N_PD339_LLL110E W=0.51U L=0.13U M=1
MN19 NET0376 NET584 GND GND N_PD339_LLL110E W=0.51U L=0.13U M=1
MN18 NET584 NET0376 GND GND N_PD339_LLL110E W=0.51U L=0.13U M=1
MN12 NET0400 NET588 GND GND N_PD339_LLL110E W=0.51U L=0.13U M=1
MN13 NET588 NET0400 GND GND N_PD339_LLL110E W=0.51U L=0.13U M=1
MN11 NET604 BTKBL GND GND N_PD339_LLL110E W=0.51U L=0.13U M=1
MN10 BTKBL NET604 GND GND N_PD339_LLL110E W=0.51U L=0.13U M=1
MN0 GND GND GND GND N_PD339_LLL110E W=0.51U L=0.13U M=1
MN6 GND GND GND GND N_PD339_LLL110E W=0.51U L=0.13U M=1
MN35 NET0333 BTKWL GND GND N_PG339_LLL110E W=0.18U L=0.165U M=1
MN36 GND BTKWL GND GND N_PG339_LLL110E W=0.18U L=0.165U M=1
MN31 NET0341 BTKWL GND GND N_PG339_LLL110E W=0.18U L=0.165U M=1
MN32 GND BTKWL GND GND N_PG339_LLL110E W=0.18U L=0.165U M=1
MN29 BTKBL BTKWL NET0354 GND N_PG339_LLL110E W=0.18U L=0.165U M=1
MN28 DMBLPA0 GND BTKBL GND N_PG339_LLL110E W=0.18U L=0.165U M=1
MN27 DMBLBPA GND NET568 GND N_PG339_LLL110E W=0.18U L=0.165U M=1