* ________________________________________________________________________________________________
* 
* 
*             Synchronous High-Density Single-Port SRAM Compiler
* 
*                 UMC 0.11um LL AE Logic Process
* 
* ________________________________________________________________________________________________
* 
*               
*         Copyright (C) 2024 Faraday Technology Corporation. All Rights Reserved.       
*                
*         This source code is an unpublished work belongs to Faraday Technology Corporation       
*         It is considered a trade secret and is not to be divulged or       
*         used by parties who have not received written authorization from       
*         Faraday Technology Corporation       
*                
*         Faraday's home page can be found at: http://www.faraday-tech.com/       
*                
* ________________________________________________________________________________________________
* 
*        IP Name            :  FSR0K_D_SH                
*        IP Version         :  1.3.0                     
*        IP Release Status  :  Active                    
*        Word               :  4224                      
*        Bit                :  8                         
*        Byte               :  16                        
*        Mux                :  1                         
*        Output Loading     :  0.01                      
*        Clock Input Slew   :  0.016                     
*        Data Input Slew    :  0.016                     
*        Ring Type          :  Ring Shape Model          
*        Ring Width         :  2                         
*        Bus Format         :  0                         
*        Memaker Path       :  /home/mem/Desktop/memlib  
*        GUI Version        :  m20230904                 
*        Date               :  2024/12/23 09:47:42       
* ________________________________________________________________________________________________
* 
*** Top Cell SHKD110_4224X8X16BM1
*** Mon Dec 23 09:47:42 2024

*.BIPOLAR
.PARAM


.GLOBAL VCC GND 

.SUBCKT SHKD_PARINV OUT IN  LP=0.12U WP=10U LN=0.12U WN=5U
MN       OUT IN  GND    GND N_12_LLL110E L=LN W=WN
MP       VCC IN  OUT  VCC P_12_LLL110E L=LP W=WP
.ENDS

.SUBCKT SHKD_PARTRANS_HS OUT IN  S   SN  LP=0.12U WP=5U LN=0.12U WN=5U
MN       IN  S   OUT  GND N_12_LLL110E L=LN W=WN
MP       IN  SN  OUT  VCC P_12_LLL110E L=LP W=WP
.ENDS

.SUBCKT SHKD_PARNAND QN  A   B   LP=0.12U WP=6U LN=0.12U WN=6U
M2       QN  A   N1N38  GND N_12_LLL110E L=LN W=WN
M3       N1N38 B   GND    GND N_12_LLL110E L=LN W=WN
M0       VCC A   QN   VCC P_12_LLL110E L=LP W=WP
M1       VCC B   QN   VCC P_12_LLL110E L=LP W=WP
.ENDS

.SUBCKT SHKD_BLMUX BL0 BL1 BL2 BL3 BL4 BL5 BL6 BL7 BLB0 BLB1 BLB2 BLB3 BLB4  
+ BLB5 BLB6 BLB7 BLPCH DL  DLB YS0 YS1 YS2 YS3 YS4 YS5 YS6 YS7 YSEL
X1I1316  DL  BL2 YS2I YS2B SHKD_PARTRANS_HS  LP=0.12U WP=0.80U LN=0.12U WN=1.60U
X1I1317  DLB BLB2 YS2I YS2B SHKD_PARTRANS_HS  LP=0.12U WP=0.80U LN=0.12U WN=1.60U
X1I1318  DLB BLB7 YS7I YS7B SHKD_PARTRANS_HS  LP=0.12U WP=0.80U LN=0.12U WN=1.60U
X1I1319  DL  BL3 YS3I YS3B SHKD_PARTRANS_HS  LP=0.12U WP=0.80U LN=0.12U WN=1.60U
X1I1320  DLB BLB3 YS3I YS3B SHKD_PARTRANS_HS  LP=0.12U WP=0.80U LN=0.12U WN=1.60U
X1I1321  DL  BL6 YS6I YS6B SHKD_PARTRANS_HS  LP=0.12U WP=0.80U LN=0.12U WN=1.60U
X1I1322  DLB BLB6 YS6I YS6B SHKD_PARTRANS_HS  LP=0.12U WP=0.80U LN=0.12U WN=1.60U
X1I1327  DL  BL7 YS7I YS7B SHKD_PARTRANS_HS  LP=0.12U WP=0.80U LN=0.12U WN=1.60U
M1I1752  VCC YS0I BLB0  VCC P_12_LLL110E L=0.12U W=5.00U
M1I1754  VCC YS0I BL0  VCC P_12_LLL110E L=0.12U W=5.00U
M1I1758  BL0 YS0I BLB0  VCC P_12_LLL110E L=0.12U W=1.00U
M1I1774  VCC YS4I BL4  VCC P_12_LLL110E L=0.12U W=5.00U
M1I1775  VCC YS4I BLB4  VCC P_12_LLL110E L=0.12U W=5.00U
M1I1782  BL4 YS4I BLB4  VCC P_12_LLL110E L=0.12U W=1.00U
M1I1784  VCC YS1I BL1  VCC P_12_LLL110E L=0.12U W=5.00U
M1I1785  VCC YS1I BLB1  VCC P_12_LLL110E L=0.12U W=5.00U
M1I1792  BL1 YS1I BLB1  VCC P_12_LLL110E L=0.12U W=1.00U
M1I1794  VCC YS5I BL5  VCC P_12_LLL110E L=0.12U W=5.00U
M1I1795  VCC YS5I BLB5  VCC P_12_LLL110E L=0.12U W=5.00U
M1I1802  BL5 YS5I BLB5  VCC P_12_LLL110E L=0.12U W=1.00U
M1I1804  VCC YS2I BL2  VCC P_12_LLL110E L=0.12U W=5.00U
M1I1805  VCC YS2I BLB2  VCC P_12_LLL110E L=0.12U W=5.00U
M1I1812  BL2 YS2I BLB2  VCC P_12_LLL110E L=0.12U W=1.00U
M1I1814  VCC YS7I BL7  VCC P_12_LLL110E L=0.12U W=5.00U
M1I1815  VCC YS7I BLB7  VCC P_12_LLL110E L=0.12U W=5.00U
M1I1822  BL7 YS7I BLB7  VCC P_12_LLL110E L=0.12U W=1.00U
M1I1824  VCC YS3I BL3  VCC P_12_LLL110E L=0.12U W=5.00U
M1I1825  VCC YS3I BLB3  VCC P_12_LLL110E L=0.12U W=5.00U
M1I1832  BL3 YS3I BLB3  VCC P_12_LLL110E L=0.12U W=1.00U
M1I1834  VCC YS6I BL6  VCC P_12_LLL110E L=0.12U W=5.00U
M1I1835  VCC YS6I BLB6  VCC P_12_LLL110E L=0.12U W=5.00U
M1I1842  BL6 YS6I BLB6  VCC P_12_LLL110E L=0.12U W=1.00U
M1I2096  VCC BLPCH DL   VCC P_12_LLL110E L=0.12U W=3.00U
M1I2097  VCC BLPCH DLB  VCC P_12_LLL110E L=0.12U W=3.00U
M1I2102  DL  BLPCH DLB  VCC P_12_LLL110E L=0.12U W=1.00U
X1I2612  YS0I YS0B SHKD_PARINV  LP=0.12U WP=2.5U LN=0.12U WN=1.0U
X1I2613  YS0B YSEL YS0 SHKD_PARNAND  LP=0.12U WP=1U LN=0.12U WN=1.0U M=1
X1I2617  YS4B YSEL YS4 SHKD_PARNAND  LP=0.12U WP=1U LN=0.12U WN=1.0U M=1
X1I2619  YS4I YS4B SHKD_PARINV  LP=0.12U WP=2.5U LN=0.12U WN=1.0U
X1I2622  YS1I YS1B SHKD_PARINV  LP=0.12U WP=2.5U LN=0.12U WN=1.0U
X1I2624  YS1B YSEL YS1 SHKD_PARNAND  LP=0.12U WP=1U LN=0.12U WN=1.0U M=1
X1I2625  YS5B YSEL YS5 SHKD_PARNAND  LP=0.12U WP=1U LN=0.12U WN=1.0U M=1
X1I2627  YS5I YS5B SHKD_PARINV  LP=0.12U WP=2.5U LN=0.12U WN=1.0U
X1I2630  YS2I YS2B SHKD_PARINV  LP=0.12U WP=2.5U LN=0.12U WN=1.0U
X1I2632  YS2B YSEL YS2 SHKD_PARNAND  LP=0.12U WP=1U LN=0.12U WN=1.0U M=1
X1I2633  YS7B YSEL YS7 SHKD_PARNAND  LP=0.12U WP=1U LN=0.12U WN=1.0U M=1
X1I2635  YS7I YS7B SHKD_PARINV  LP=0.12U WP=2.5U LN=0.12U WN=1.0U
X1I2642  YS3I YS3B SHKD_PARINV  LP=0.12U WP=2.5U LN=0.12U WN=1.0U
X1I2644  YS3B YSEL YS3 SHKD_PARNAND  LP=0.12U WP=1U LN=0.12U WN=1.0U M=1
X1I2645  YS6B YSEL YS6 SHKD_PARNAND  LP=0.12U WP=1U LN=0.12U WN=1.0U M=1
X1I2647  YS6I YS6B SHKD_PARINV  LP=0.12U WP=2.5U LN=0.12U WN=1.0U
X1I423   DL  BL0 YS0I YS0B SHKD_PARTRANS_HS  LP=0.12U WP=0.80U LN=0.12U WN=1.60U
X1I424   DLB BLB0 YS0I YS0B SHKD_PARTRANS_HS  LP=0.12U WP=0.80U LN=0.12U WN=1.60U
X1I437   DL  BL4 YS4I YS4B SHKD_PARTRANS_HS  LP=0.12U WP=0.80U LN=0.12U WN=1.60U
X1I438   DLB BLB4 YS4I YS4B SHKD_PARTRANS_HS  LP=0.12U WP=0.80U LN=0.12U WN=1.60U
X1I443   DL  BL1 YS1I YS1B SHKD_PARTRANS_HS  LP=0.12U WP=0.80U LN=0.12U WN=1.60U
X1I444   DLB BLB1 YS1I YS1B SHKD_PARTRANS_HS  LP=0.12U WP=0.80U LN=0.12U WN=1.60U
X1I449   DL  BL5 YS5I YS5B SHKD_PARTRANS_HS  LP=0.12U WP=0.80U LN=0.12U WN=1.60U
X1I450   DLB BLB5 YS5I YS5B SHKD_PARTRANS_HS  LP=0.12U WP=0.80U LN=0.12U WN=1.60U
.ENDS

.SUBCKT SHKD_PARTRANS OUT IN  S   SN  LP=0.12U WP=5U LN=0.12U WN=5U
MN       IN  S   OUT  GND N_12_LLL110E L=LN W=WN
MP       IN  SN  OUT  VCC P_12_LLL110E L=LP W=WP
.ENDS

.SUBCKT SHKD_PARNAND3 Z   A   B   C   LP=0.12U WP=6U LN=0.12U WN=6U
M0       VCC A   Z    VCC P_12_LLL110E L=LP W=WP
M3       Z   A   N1N38  GND N_12_LLL110E L=LN W=WN
M1       VCC B   Z    VCC P_12_LLL110E L=LP W=WP
M4       N1N38 B   N1N51  GND N_12_LLL110E L=LN W=WN
M2       VCC C   Z    VCC P_12_LLL110E L=LP W=WP
M5       N1N51 C   GND    GND N_12_LLL110E L=LN W=WN
.ENDS

.SUBCKT SHKD_DIDO BL0 BL1 BL2 BL3 BL4 BL5 BL6 BL7 BL8 BL9 BL10 BL11 BL12
+  BL13 BL14 BL15 BLB0 BLB1 BLB2 BLB3 BLB4 BLB5 BLB6 BLB7 BLB8 BLB9 BLB10
+  BLB11 BLB12 BLB13 BLB14 BLB15 CSI IPB IOE Z0FF Z0Q Z1FF Z1Q Z2FF Z2Q 
+  Z3FF Z3Q WEBFF WEQ YS0 YS1 YS2 YS3 YS4 YS5 YS6 YS7 YSEL ZSFF  ZS DI DO
XBLMUX0  BL0 BL1 BL2 BL3 BL4 BL5 BL6 BL7 BLB0 BLB1 BLB2 BLB3 BLB4 BLB5 BLB6  
+ BLB7 BLPCH DL  DLB YS0 YS1 YS2 YS3 YS4 YS5 YS6 YS7 YSELDB SHKD_BLMUX
X1I1917  N1N2396 WIP SHKD_PARINV  LP=0.12U WP=1.20U LN=0.12U WN=0.40U
X1I1927  ENSA ENSAB SHKD_PARINV  LP=0.12U WP=1.80U LN=0.12U WN=0.60U
X1I1983  DII AN2I SHKD_PARINV  LP=0.12U WP=3.00U LN=0.12U WN=1.50U
X1I1985  AN2I AN2 IPB_DI IP  SHKD_PARTRANS  LP=0.12U WP=1.50U LN=0.12U WN=0.60U
X1I1986  DIBDL DIB WIP N1N2396 SHKD_PARTRANS  LP=0.12U WP=2.00U LN=0.12U WN=1.00U
M1I1987  DLB DIIDLB GND    GND N_12_LLL110E L=0.12U W=8.00U
M1I1990  DIIDLB N1N2396 GND    GND N_12_LLL110E L=0.12U W=0.40U
X1I1991  N1N1960 DII SHKD_PARINV  LP=0.12U WP=0.24U LN=0.12U WN=0.24U
X1I1992  DIB DII SHKD_PARINV  LP=0.12U WP=4.00U LN=0.12U WN=1.50U
M1I1993  DIBDL N1N2396 GND    GND N_12_LLL110E L=0.12U W=0.40U
X1I1994  AN2 AN1 SHKD_PARINV  LP=0.12U WP=2.10U LN=0.12U WN=0.70U
X1I1995  AN1 AN0 SHKD_PARINV  LP=0.2U WP=0.70U LN=0.2U WN=0.40U
M1I1998  DL  DIBDL GND    GND N_12_LLL110E L=0.12U W=8.00U
MSAP1    DLB1 DL1 VCC  VCC P_12_LLL110E L=0.12U W=1.28U
X1I2011  OEBI OEI SHKD_PARINV  LP=0.12U WP=1.00U LN=0.12U WN=0.40U
M1I2012  DOBP OEI VCC  VCC P_12_LLL110E L=0.12U W=1.00U
M1I2013  DOBN OEBI GND    GND N_12_LLL110E L=0.12U W=0.50U
MSAP2    DL1 DLB1 VCC  VCC P_12_LLL110E L=0.12U W=1.28U
MSAN1    DLB1 DL1 P3   GND N_12_LLL110E L=0.16U W=4.00U
M1I2023  DL1 BLPCH VCC  VCC P_12_LLL110E L=0.12U W=2.00U
M1I2026  DLB1 BLPCH VCC  VCC P_12_LLL110E L=0.12U W=2.00U
M1I2027  DOBI ST1 GND    GND N_12_LLL110E L=0.12U W=3.00U
M1I2028  N1N1975 ST1 DOBI  VCC P_12_LLL110E L=0.12U W=1.00U
X1I2030  OEI IOEB SHKD_PARINV  LP=0.12U WP=1.00U LN=0.12U WN=0.40U
MSAN2    DL1 DLB1 P3   GND N_12_LLL110E L=0.16U W=4.00U
MSAN5    P3  ENSA GND    GND N_12_LLL110E L=0.12U W=4.00U
X1I2042  ST1 DLB1 N1N2645 SHKD_PARNAND  LP=0.12U WP=1.00U LN=0.12U WN=1.00U M=1
X1I2043  ST2 DL1 N1N2647 SHKD_PARNAND  LP=0.12U WP=1.00U LN=0.12U WN=1.00U M=1
M1I2045  VCC N1N2116 N1N1975  VCC P_12_LLL110E L=0.12U W=1.00U
X1I2046  N1N2116 DOBI SHKD_PARINV  LP=0.12U WP=0.48U LN=0.12U WN=0.25U
M1I2047  VCC ST3 DOBI  VCC P_12_LLL110E L=0.12U W=8.00U
M1I2048  DOBI ST3 N1N1973  GND N_12_LLL110E L=0.12U W=0.50U
M1I2049  N1N1973 N1N2116 GND    GND N_12_LLL110E L=0.12U W=0.50U
X1I2050  ST3 ST2 SHKD_PARINV  LP=0.12U WP=1.50U LN=0.12U WN=2.00U
M1I2056  DO  DOBN GND    GND N_12_LLL110E L=0.12U W=8.00U
X1I2061  DOBP DOBI OEI OEBI SHKD_PARTRANS  LP=0.12U WP=1.50U LN=0.12U WN=1.50U
X1I2062  DOBN DOBI OEI OEBI SHKD_PARTRANS  LP=0.12U WP=1.50U LN=0.12U WN=1.00U
M1I2063  DO  DOBP VCC  VCC P_12_LLL110E L=0.12U W=16.00U
X1I2067  IOEB ZSFF IOE SHKD_PARNAND  LP=0.12U WP=0.48U LN=0.12U WN=0.24U M=1
X1I2081  DIIDLB DII WIP N1N2396 SHKD_PARTRANS  LP=0.12U WP=2.00U LN=0.12U WN=1.00U
X1I2098  CSDI N1N2725 CSI SHKD_PARNAND  LP=0.12U WP=0.36U LN=0.12U WN=0.24U M=1
X1I2105  PCH2 PCH1 SHKD_PARINV  LP=0.12U WP=0.3U LN=0.12U WN=0.3U
X1I2170  WIP WIPB SHKD_PARINV  LP=0.12U WP=1.20U LN=0.12U WN=0.40U
X1I2214  N1N2721 DI  SHKD_PARINV  LP=0.12U WP=0.48U LN=0.12U WN=0.24U
X1I2221  AN0 CSDI SHKD_PARINV  LP=0.2U WP=0.48U LN=0.2U WN=0.24U
X1I2389  ENSAB IPB_DI IPBDB RS  SHKD_PARNAND3  LP=0.12U WP=0.8U LN=0.12U WN=0.8U M=1
X1I2400  IP_DI IPB_DI SHKD_PARINV  LP=0.12U WP=0.24U LN=0.12U WN=0.24U
X1I2404  WIPB IP  WEQ ZS  SHKD_PARNAND3  LP=0.12U WP=0.40U LN=0.12U WN=0.40U M=1
X1I2414  RSB WEBFF ZSFF SHKD_PARNAND  LP=0.12U WP=0.24U LN=0.12U WN=0.24U M=1
X1I2417  RS  RSB SHKD_PARINV  LP=0.12U WP=0.24U LN=0.12U WN=0.24U
X1I2428  IPB_DI IP  SHKD_PARINV  LP=0.12U WP=1.00U LN=0.12U WN=0.50U
X1I2459  IP  IPB SHKD_PARINV  LP=0.12U WP=1.00U LN=0.12U WN=0.50U
X1I2468  N1N2719 IP_DI SHKD_PARINV  LP=0.12U WP=0.24U LN=0.12U WN=0.24U
X1I2477  N1N2479 N1N2714 SHKD_PARINV  LP=0.2U WP=0.24U LN=0.2U WN=0.24U
X1I2478  IPBD N1N2479 SHKD_PARINV  LP=0.2U WP=0.50U LN=0.2U WN=0.25U
X1I2497  IPBDB IPBD SHKD_PARINV  LP=0.12U WP=0.24U LN=0.12U WN=0.24U
XBLMUX1  BL8 BL9 BL10 BL11 BL12 BL13 BL14 BL15 BLB8 BLB9 BLB10 BLB11 BLB12  
+ BLB13 BLB14 BLB15 BLPCH DL  DLB YS0 YS1 YS2 YS3 YS4 YS5 YS6 YS7 YSELD  
+ SHKD_BLMUX
X1I2624  YSELDB YSEL_LB SHKD_PARINV  LP=0.12U WP=3U LN=0.12U WN=1.12U
X1I2643  N1N2647 N1N2700 WIP SHKD_PARNAND  LP=0.12U WP=0.50U LN=0.12U WN=0.50U M=1
X1I2644  N1N2645 N1N2691 WIP SHKD_PARNAND  LP=0.12U WP=0.50U LN=0.12U WN=0.50U M=1
X1I2680  N1N2700 N1N2703 SHKD_PARINV  LP=0.12U WP=0.24U LN=0.12U WN=0.24U
X1I2690  N1N2691 N1N2697 SHKD_PARINV  LP=0.12U WP=0.24U LN=0.12U WN=0.24U
X1I2696  N1N2697 DII SHKD_PARINV  LP=0.12U WP=0.24U LN=0.12U WN=0.24U
X1I2702  N1N2703 DIB SHKD_PARINV  LP=0.12U WP=0.24U LN=0.12U WN=0.24U
X1I2707  AN2I N1N1960 IP  IPB_DI SHKD_PARTRANS  LP=0.12U WP=0.24U LN=0.12U WN=0.24U
X1I2715  N1N2718 N1N2719 SHKD_PARINV  LP=0.12U WP=0.24U LN=0.12U WN=0.24U
X1I2716  N1N2714 N1N2718 SHKD_PARINV  LP=0.12U WP=0.50U LN=0.12U WN=0.25U
X1I2720  N1N2724 N1N2721 SHKD_PARINV  LP=0.2U WP=0.48U LN=0.2U WN=0.24U
X1I2723  N1N2725 N1N2724 SHKD_PARINV  LP=0.2U WP=0.48U LN=0.2U WN=0.24U
M1I2733  DL  N1N2754 VCC  VCC P_12_LLL110E L=0.12U W=2.00U
M1I2734  DLB N1N2755 VCC  VCC P_12_LLL110E L=0.12U W=2.00U
M1I2743  N1N2754 WIP VCC  VCC P_12_LLL110E L=0.12U W=0.40U
M1I2744  VCC WIP N1N2755  VCC P_12_LLL110E L=0.12U W=0.40U
X1I2756  N1N2754 DIBDL WIP N1N2396 SHKD_PARTRANS  LP=0.12U WP=0.24U LN=0.12U  
+ WN=0.24U
X1I2759  N1N2755 DIIDLB WIP N1N2396 SHKD_PARTRANS  LP=0.12U WP=0.24U LN=0.12U  
+ WN=0.24U
MPASSDL  DL  ENSA DL1  VCC P_12_LLL110E L=0.12U W=1.20U
MPASSDLB DLB ENSA DLB1  VCC P_12_LLL110E L=0.12U W=1.20U
M1I2781  GND   GND   GND    GND N_12_LLL110E L=0.12U W=1.00U
M1I2790  GND   GND   GND    GND N_12_LLL110E L=0.12U W=1.00U
M1I2793  P3  GND   GND    GND N_12_LLL110E L=0.12U W=2.00U
M1I2794  P3  GND   GND    GND N_12_LLL110E L=0.12U W=2.00U
M1I2802  DLB VCC VCC  VCC P_12_LLL110E L=0.12U W=1.20U
M1I2808  DL  VCC VCC  VCC P_12_LLL110E L=0.12U W=1.20U
M1I2812  DL1 VCC DLB1  VCC P_12_LLL110E L=0.12U W=1.20U
X1I2842  PCH1 IPB_DI SHKD_PARINV  LP=0.12U WP=0.60U LN=0.12U WN=0.40U
X1I2847  YSEL_RB YSEL PCH1 SHKD_PARNAND  LP=0.12U WP=0.6U LN=0.12U WN=0.6U M=1
X1I2848  YSELD YSEL_RB SHKD_PARINV  LP=0.12U WP=3U LN=0.12U WN=1.12U
X1I2858  YSEL_LB YSEL_RB PCH1 SHKD_PARNAND  LP=0.12U WP=0.6U LN=0.12U WN=0.6U M=1
X1I2863  BLPCH PCH2 ENSAB SHKD_PARNAND  LP=0.12U WP=0.6U LN=0.12U WN=0.6U M=1
.ENDS

.SUBCKT SHKD_DCELL BL  BLB WL
M0       N0  BLB VCC  VCC P_L185_LLL110E L=0.12U W=0.165U
M2       N0  BLB GND    GND N_PD185_LLL110E L=0.12U W=0.265U
M3       BLB N0  GND    GND N_PD185_LLL110E L=0.12U W=0.265U
M1       BLB N0  VCC  VCC P_L185_LLL110E L=0.12U W=0.165U
M4       BL  WL  N0   GND N_PG185_LLL110E L=0.13U W=0.185U
M5       BLB WL  BLB  GND N_PG185_LLL110E L=0.13U W=0.185U
.ENDS

.SUBCKT SHKD_CELL BL BLB WL
.IC V(8)=0
M0 8 9 GND GND N_PD185_LLL110E L=0.12U W=0.265U
M1 8 WL BL GND N_PG185_LLL110E L=0.13U W=0.185U
M2 9 WL BLB GND N_PG185_LLL110E L=0.13U W=0.185U
M3 GND 8 9 GND N_PD185_LLL110E L=0.12U W=0.265U
M4 8 9 VCC VCC P_L185_LLL110E L=0.120U W=0.165U
M5 VCC 8 9 VCC P_L185_LLL110E L=0.120U W=0.165U
.ENDS

.SUBCKT SHKD_DMY_SEC WL
.IC V(5)=0
M0 5 6 GND GND N_PD185_LLL110E L=0.12U W=0.265U
M1 5 WL GND GND N_PG185_LLL110E L=0.13U W=0.185U
M2 6 WL VCC GND N_PG185_LLL110E L=0.13U W=0.185U
M3 GND 5 6 GND N_PD185_LLL110E L=0.12U W=0.265U
M4 5 6 VCC VCC P_L185_LLL110E L=0.12U W=0.165U
M5 VCC 5 6 VCC P_L185_LLL110E L=0.12U W=0.165U
.ENDS

.SUBCKT SHKD_DMY_XDEC WL
.IC V(5)=0
M0 5 6 GND GND N_PD185_LLL110E L=0.12U W=0.265U
M1 5 WL GND GND N_PG185_LLL110E L=0.13U W=0.185U
M2 6 WL VCC GND N_PG185_LLL110E L=0.13U W=0.185U
M3 GND 5 6 GND N_PD185_LLL110E L=0.12U W=0.265U
M4 5 6 VCC VCC P_L185_LLL110E L=0.12U W=0.165U
M5 VCC 5 6 VCC P_L185_LLL110E L=0.12U W=0.165U
.ENDS

.SUBCKT SHKD_CELL_DUMMY BL  BLB
M0 GND GND GND GND N_PD185_LLL110E L=0.12U W=0.265U
M1 BL GND GND GND N_PG185_LLL110E L=0.13U W=0.185U
M2 BLB GND GND GND N_PG185_LLL110E L=0.13U W=0.185U
M3 GND GND GND GND N_PD185_LLL110E L=0.12U W=0.265U
M4 GND GND GND VCC P_L185_LLL110E L=0.12U W=0.165U
M5 GND GND GND VCC P_L185_LLL110E L=0.12U W=0.165U
.ENDS

.SUBCKT SHKD_DMY_CORNER_XDEC VCCP GNDP
M4 GNDP GNDP GNDP  VCCP P_L185_LLL110E L=0.12U W=0.165U
M0 GNDP GNDP GNDP  GNDP N_PD185_LLL110E L=0.12U W=0.265U
M3 GNDP GNDP GNDP  GNDP N_PD185_LLL110E L=0.12U W=0.265U
M5 GNDP GNDP GNDP  VCCP P_L185_LLL110E L=0.12U W=0.165U
M1 VCCP GNDP GNDP  GNDP N_PG185_LLL110E L=0.13U W=0.185U
M2 GNDP GNDP GNDP  GNDP N_PG185_LLL110E L=0.13U W=0.185U
.ENDS

.SUBCKT SHKD_DMY_CORNER_SEC VCCP GNDP
M0 GNDP GNDP GNDP  VCCP P_L185_LLL110E L=0.12U W=0.165U
M2 GNDP GNDP GNDP  GNDP N_PD185_LLL110E L=0.12U W=0.265U
M3 GNDP GNDP GNDP  GNDP N_PD185_LLL110E L=0.12U W=0.265U
M1 GNDP GNDP GNDP  VCCP P_L185_LLL110E L=0.12U W=0.165U
M4 VCCP GNDP GNDP  GNDP N_PG185_LLL110E L=0.13U W=0.185U
M5 GNDP GNDP GNDP  GNDP N_PG185_LLL110E L=0.13U W=0.185U
.ENDS

.SUBCKT SHKD_PARNOR OUT A   B   LP=0.12U WP=6U LN=0.12U WN=3U
M0       VCC A   N1N60  VCC P_12_LLL110E L=LP W=WP
M2       OUT B   GND    GND N_12_LLL110E L=LN W=WN
M1       N1N60 B   OUT  VCC P_12_LLL110E L=LP W=WP
M3       OUT A   GND    GND N_12_LLL110E L=LN W=WN
.ENDS

.SUBCKT SHKD_ATDCK ATDCK CK  CSB
XINVCKD2 CKDL2 CKDL1 SHKD_PARINV  LP=0.12U WP=1.20U LN=0.12U WN=0.60U
XINVCKD1 CKDL1 CK  SHKD_PARINV  LP=0.12U WP=0.60U LN=0.12U WN=0.30U
XINVCSR  N1N509 CSIN SHKD_PARINV  LP=0.12U WP=0.60U LN=0.12U WN=0.30U
XINVCSF  CSIN CSN SHKD_PARINV  LP=0.12U WP=1.60U LN=0.12U WN=0.80U
XTRANCS  CSN CSBIN CKDL1 CKDL2 SHKD_PARTRANS  LP=0.12U WP=0.80U LN=0.12U WN=0.80U
MNDN1    ATDCK CK  N1N23  GND N_12_LLL110E L=0.12U W=12.00U
MNDN0    N1N23 CKCSB GND    GND N_12_LLL110E L=0.12U W=8.00U
MPUP1    VCC CKCSB ATDCK  VCC P_12_LLL110E L=0.12U W=5.00U
MPUP2    N1N385 CK  ATDCK  VCC P_12_LLL110E L=0.12U W=3.00U
MPUP3    VCC CKCSI N1N385  VCC P_12_LLL110E L=0.12U W=3.00U
XINV3    CKCSI CKCSB SHKD_PARINV  LP=0.12U WP=0.60U LN=0.12U WN=0.30U
XNOR1    CKCSB CSIN CKDL4 SHKD_PARNOR  LP=0.12U WP=4.80U LN=0.12U WN=0.80U M=1
XINV2    N1N518 CSB SHKD_PARINV  LP=0.12U WP=0.60U LN=0.12U WN=0.30U
XINVCKD4 CKDL4 CKDL3 SHKD_PARINV  LP=0.12U WP=1.60U LN=0.12U WN=0.80U
XINVCKD3 CKDL3 CKDL2 SHKD_PARINV  LP=0.12U WP=0.60U LN=0.12U WN=0.30U
X1I508   N1N509 CSN CKDL2 CKDL1 SHKD_PARTRANS  LP=0.12U WP=0.40U LN=0.12U WN=0.40U
X1I517   N1N521 N1N518 SHKD_PARINV  LP=0.12U WP=1.00U LN=0.12U WN=0.50U
X1I520   CSBIN N1N521 SHKD_PARINV  LP=0.12U WP=1.60U LN=0.12U WN=0.80U
.ENDS

.SUBCKT SHKD_PARINV_HS OUT IN  LP=0.12U WP=10U LN=0.12U WN=5U
MN       OUT IN  GND    GND N_12_LLL110E L=LN W=WN
MP       VCC IN  OUT  VCC P_12_LLL110E L=LP W=WP
.ENDS

.SUBCKT SHKD_SIGNAL ATDCK DBL IPA IPAB IPB WLENB
MPIPUP   SIP ATDCK VCC  VCC P_12_LLL110E L=0.12U W=30.00U
MPSIPB   N1N1274 SIPB VCC  VCC P_12_LLL110E L=0.12U W=1.60U
MNIPDN   SIP PUDN GND    GND N_12_LLL110E L=0.12U W=10.00U
MNSIPB   N1N1276 SIPB GND    GND N_12_LLL110E L=0.12U W=1.00U
MPSHOOT  SIP PUDN N1N1274  VCC P_12_LLL110E L=0.12U W=1.60U
MNCKDB   SIP ATDCK N1N1276  GND N_12_LLL110E L=0.12U W=1.00U
XINVRT   IPB SIP SHKD_PARINV  LP=0.12U WP=28.00U LN=0.12U WN=20.00U
X1I1846  WLENB SIP SHKD_PARINV_HS  LP=0.12U WP=24.00U LN=0.12U WN=18.00U
X1I2020  PUDN DBL SHKD_PARINV  LP=0.2U WP=4.00U LN=0.2U WN=2.00U
X1I2078  SIPB SIP SHKD_PARINV  LP=0.12U WP=0.60U LN=0.12U WN=0.30U
X1I2171  N1N2207 SIP SHKD_PARINV  LP=0.12U WP=3.00U LN=0.12U WN=3.00U
X1I2172  IPAB SIP SHKD_PARINV  LP=0.12U WP=6.00U LN=0.12U WN=4.00U
X1I2183  IPA N1N2207 SHKD_PARINV  LP=0.12U WP=10.00U LN=0.12U WN=3.00U
.ENDS

.SUBCKT SHKD_YDEC CSB IP  IPB Y0  Y1  Y2  YS0 YS1 YS2 YS3 YS4 YS5 YS6 YS7
X1I1917  T0  T0B SHKD_PARINV  LP=0.12U WP=3.20U LN=0.12U WN=1.60U
X1I1918  N1N2324 T0  SHKD_PARINV  LP=0.12U WP=0.48U LN=0.12U WN=0.28U
X1I1923  S1B T1B IPB IP  SHKD_PARTRANS  LP=0.12U WP=1.0U LN=0.12U WN=0.50U
X1I1926  S2B T2B IPB IP  SHKD_PARTRANS  LP=0.12U WP=1.0U LN=0.12U WN=0.50U
X1I1941  S6B T6B IPB IP  SHKD_PARTRANS  LP=0.12U WP=1.0U LN=0.12U WN=0.50U
X1I1942  S7B T7B IPB IP  SHKD_PARTRANS  LP=0.12U WP=1.0U LN=0.12U WN=0.50U
X1I1943  S5B T5B IPB IP  SHKD_PARTRANS  LP=0.12U WP=1.0U LN=0.12U WN=0.50U
X1I1944  S4B T4B IPB IP  SHKD_PARTRANS  LP=0.12U WP=1.0U LN=0.12U WN=0.50U
X1I1945  A1B A1I SHKD_PARINV  LP=0.12U WP=3.20U LN=0.12U WN=0.80U
X1I1957  A2I A2BCS SHKD_PARINV_HS  LP=0.12U WP=2.00U LN=0.12U WN=1.00U
X1I1958  A1I A1BCS SHKD_PARINV_HS  LP=0.12U WP=2.00U LN=0.12U WN=1.00U
X1I1959  A1BCS CSB Y1  SHKD_PARNOR  LP=0.12U WP=1.20U LN=0.12U WN=0.40U M=1
X1I1980  N1N2316 A2I A1B A0I SHKD_PARNAND3  LP=0.12U WP=1.00U LN=0.12U WN=2.00U M=1
X1I1990  N1N2309 A2B A1B A0I SHKD_PARNAND3  LP=0.12U WP=1.00U LN=0.12U WN=2.00U M=1
X1I1997  N1N2313 A2B A1I A0I SHKD_PARNAND3  LP=0.12U WP=1.00U LN=0.12U WN=2.00U M=1
X1I1999  N1N2315 A2I A1B A0B SHKD_PARNAND3  LP=0.12U WP=1.00U LN=0.12U WN=2.00U M=1
X1I2001  N1N2319 A2I A1I A0B SHKD_PARNAND3  LP=0.12U WP=1.00U LN=0.12U WN=2.00U M=1
X1I2006  N1N2311 A2B A1I A0B SHKD_PARNAND3  LP=0.12U WP=1.00U LN=0.12U WN=2.00U M=1
X1I2007  S7  A2I A1I A0I SHKD_PARNAND3  LP=0.12U WP=1.00U LN=0.12U WN=2.00U M=1
X1I2011  A2BCS CSB Y2  SHKD_PARNOR  LP=0.12U WP=1.20U LN=0.12U WN=0.40U M=1
X1I2012  A2B A2I SHKD_PARINV  LP=0.12U WP=3.20U LN=0.12U WN=0.80U
X1I2016  A0BCS CSB Y0  SHKD_PARNOR  LP=0.12U WP=1.20U LN=0.12U WN=0.40U M=1
X1I2017  A0I A0BCS SHKD_PARINV_HS  LP=0.12U WP=2.00U LN=0.12U WN=1.00U
X1I2018  A0B A0I SHKD_PARINV  LP=0.12U WP=3.20U LN=0.12U WN=0.80U
X1I2019  S0  A2B A1B A0B SHKD_PARNAND3  LP=0.12U WP=1.00U LN=0.12U WN=2.00U M=1
X1I2025  S0B T0B IPB IP  SHKD_PARTRANS  LP=0.12U WP=1.0U LN=0.12U WN=0.50U
X1I2026  S3B T3B IPB IP  SHKD_PARTRANS  LP=0.12U WP=1.0U LN=0.12U WN=0.50U
X1I2041  YS0 T0  SHKD_PARINV  LP=0.12U WP=18.00U LN=0.12U WN=6.00U
X1I2045  YS1 T1  SHKD_PARINV  LP=0.12U WP=18.00U LN=0.12U WN=6.00U
X1I2047  YS2 T2  SHKD_PARINV  LP=0.12U WP=18.00U LN=0.12U WN=6.00U
X1I2049  YS3 T3  SHKD_PARINV  LP=0.12U WP=18.00U LN=0.12U WN=6.00U
X1I2051  YS4 T4  SHKD_PARINV  LP=0.12U WP=18.00U LN=0.12U WN=6.00U
X1I2053  YS5 T5  SHKD_PARINV  LP=0.12U WP=18.00U LN=0.12U WN=6.00U
X1I2055  YS6 T6  SHKD_PARINV  LP=0.12U WP=18.00U LN=0.12U WN=6.00U
X1I2057  YS7 T7  SHKD_PARINV  LP=0.12U WP=18.00U LN=0.12U WN=6.00U
X1I2267  T1  T1B SHKD_PARINV  LP=0.12U WP=3.20U LN=0.12U WN=1.60U
X1I2268  N1N2347 T1  SHKD_PARINV  LP=0.12U WP=0.48U LN=0.12U WN=0.28U
X1I2271  T2  T2B SHKD_PARINV  LP=0.12U WP=3.20U LN=0.12U WN=1.60U
X1I2272  N1N2368 T2  SHKD_PARINV  LP=0.12U WP=0.48U LN=0.12U WN=0.28U
X1I2275  T3  T3B SHKD_PARINV  LP=0.12U WP=3.20U LN=0.12U WN=1.60U
X1I2276  N1N2367 T3  SHKD_PARINV  LP=0.12U WP=0.48U LN=0.12U WN=0.28U
X1I2279  T4  T4B SHKD_PARINV  LP=0.12U WP=3.20U LN=0.12U WN=1.60U
X1I2280  N1N2376 T4  SHKD_PARINV  LP=0.12U WP=0.48U LN=0.12U WN=0.28U
X1I2283  T5  T5B SHKD_PARINV  LP=0.12U WP=3.20U LN=0.12U WN=1.60U
X1I2284  N1N2375 T5  SHKD_PARINV  LP=0.12U WP=0.48U LN=0.12U WN=0.28U
X1I2287  T6  T6B SHKD_PARINV  LP=0.12U WP=3.20U LN=0.12U WN=1.60U
X1I2288  N1N2384 T6  SHKD_PARINV  LP=0.12U WP=0.48U LN=0.12U WN=0.28U
X1I2291  T7  T7B SHKD_PARINV  LP=0.12U WP=3.20U LN=0.12U WN=1.60U
X1I2292  N1N2383 T7  SHKD_PARINV  LP=0.12U WP=0.48U LN=0.12U WN=0.28U
X1I2300  S0B S0  SHKD_PARINV  LP=0.12U WP=2.40U LN=0.12U WN=1.00U
X1I2310  S1B N1N2309 SHKD_PARINV  LP=0.12U WP=2.40U LN=0.12U WN=1.00U
X1I2312  S2B N1N2311 SHKD_PARINV  LP=0.12U WP=2.40U LN=0.12U WN=1.00U
X1I2314  S3B N1N2313 SHKD_PARINV  LP=0.12U WP=2.40U LN=0.12U WN=1.00U
X1I2317  S5B N1N2316 SHKD_PARINV  LP=0.12U WP=2.40U LN=0.12U WN=1.00U
X1I2318  S4B N1N2315 SHKD_PARINV  LP=0.12U WP=2.40U LN=0.12U WN=1.00U
X1I2320  S6B N1N2319 SHKD_PARINV  LP=0.12U WP=2.40U LN=0.12U WN=1.00U
X1I2322  S7B S7  SHKD_PARINV  LP=0.12U WP=2.40U LN=0.12U WN=1.00U
X1I2323  T0B N1N2324 IP  IPB SHKD_PARTRANS  LP=0.12U WP=0.48U LN=0.12U WN=0.28U
X1I2346  T1B N1N2347 IP  IPB SHKD_PARTRANS  LP=0.12U WP=0.48U LN=0.12U WN=0.28U
X1I2373  T2B N1N2368 IP  IPB SHKD_PARTRANS  LP=0.12U WP=0.48U LN=0.12U WN=0.28U
X1I2374  T3B N1N2367 IP  IPB SHKD_PARTRANS  LP=0.12U WP=0.48U LN=0.12U WN=0.28U
X1I2381  T4B N1N2376 IP  IPB SHKD_PARTRANS  LP=0.12U WP=0.48U LN=0.12U WN=0.28U
X1I2382  T5B N1N2375 IP  IPB SHKD_PARTRANS  LP=0.12U WP=0.48U LN=0.12U WN=0.28U
X1I2389  T6B N1N2384 IP  IPB SHKD_PARTRANS  LP=0.12U WP=0.48U LN=0.12U WN=0.28U
X1I2390  T7B N1N2383 IP  IPB SHKD_PARTRANS  LP=0.12U WP=0.48U LN=0.12U WN=0.28U
.ENDS

.SUBCKT SHKD_DLHCS CSB D   IPA IPAB Q  
XTRANS1  DINB DINBI IPAB IPA SHKD_PARTRANS  LP=0.12U WP=1.0U LN=0.12U WN=0.5U
XINVDRVF QB  DINBI SHKD_PARINV  LP=0.12U WP=4.80U LN=0.12U WN=2.40U
XINVDRVR N1N609 QB  SHKD_PARINV  LP=0.12U WP=0.48U LN=0.12U WN=0.28U
XNORCSB  D1  CSB D   SHKD_PARNOR  LP=0.12U WP=1.20U LN=0.12U WN=0.30U M=1
X1I569   N1N602 D1  SHKD_PARINV  LP=0.12U WP=0.70U LN=0.12U WN=0.30U
X1I575   DINB D2  SHKD_PARINV  LP=0.12U WP=4.50U LN=0.12U WN=1.50U
X1I600   D2  N1N602 SHKD_PARINV  LP=0.12U WP=2.20U LN=0.12U WN=0.70U
X1I605   Q   QB  SHKD_PARINV  LP=0.12U WP=16.00U LN=0.12U WN=6.00U
X1I608   DINBI N1N609 IPA IPAB SHKD_PARTRANS  LP=0.12U WP=0.48U LN=0.12U WN=0.28U
.ENDS

.SUBCKT SHKD_ZFF D   DINBI IPA IPAB Q  
XTRANS1  D   DINBI IPA IPAB SHKD_PARTRANS  LP=0.12U WP=1.00U LN=0.12U WN=0.50U
XINVDRVF Q   QB  SHKD_PARINV  LP=0.12U WP=15.00U LN=0.12U WN=6.00U
X1I551   N1N614 QB  SHKD_PARINV  LP=0.12U WP=0.48U LN=0.12U WN=0.28U
X1I607   QB  DINBI SHKD_PARINV  LP=0.12U WP=5.00U LN=0.12U WN=2.00U
X1I613   DINBI N1N614 IPAB IPA SHKD_PARTRANS  LP=0.12U WP=0.48U LN=0.12U WN=0.28U
.ENDS

.SUBCKT SHKD_DLHWEBBW CSI D   IPA IPAB IWEBQ Q  
XTRANS1  DINB DINBI IPAB IPA SHKD_PARTRANS  LP=0.12U WP=0.80U LN=0.12U WN=0.40U
XINVDRVF QB  DINBI SHKD_PARINV  LP=0.12U WP=2.40U LN=0.12U WN=1.20U
XINVDRVR N1N640 QB  SHKD_PARINV  LP=0.12U WP=0.48U LN=0.12U WN=0.28U
X1I568   D1  D CSI   SHKD_PARNAND  LP=0.12U WP=0.30U LN=0.12U WN=0.30U M=1
X1I569   N1N602 D1  SHKD_PARINV  LP=0.12U WP=0.60U LN=0.12U WN=0.30U
X1I575   N1N607 D2  SHKD_PARINV  LP=0.12U WP=1.60U LN=0.12U WN=0.80U
X1I600   D2  N1N602 SHKD_PARINV  LP=0.12U WP=1.20U LN=0.12U WN=0.40U
X1I604   DINB N1N607 SHKD_PARINV  LP=0.12U WP=3.00U LN=0.12U WN=1.20U
X1I610   Q   QB  SHKD_PARINV  LP=0.12U WP=8.00U LN=0.12U WN=3.00U
X1I624   Q   DINBIQ IPA IPAB SHKD_PARTRANS  LP=0.12U WP=0.80U LN=0.12U WN=0.40U
X1I625   IWEBQ N1N657 SHKD_PARINV  LP=0.12U WP=8.00U LN=0.12U WN=3.00U
X1I628   QQB DINBIQ SHKD_PARINV  LP=0.12U WP=1.00U LN=0.12U WN=0.40U
X1I630   N1N646 QQB SHKD_PARINV  LP=0.12U WP=0.48U LN=0.12U WN=0.28U
X1I635   N1N653 QQB SHKD_PARINV  LP=0.12U WP=1.00U LN=0.12U WN=0.40U
X1I638   DINBI N1N640 IPA IPAB SHKD_PARTRANS  LP=0.12U WP=0.48U LN=0.12U WN=0.28U
X1I644   DINBIQ N1N646 IPAB IPA SHKD_PARTRANS  LP=0.12U WP=0.48U LN=0.12U WN=0.28U
X1I651   N1N657 QQBD SHKD_PARINV  LP=0.12U WP=3.00U LN=0.12U WN=1.20U
X1I652   QQBD N1N653 SHKD_PARINV  LP=0.12U WP=1.50U LN=0.12U WN=0.60U
.ENDS

.SUBCKT SHKD_DIDOBW BL0 BL1 BL2 BL3 BL4 BL5 BL6 BL7 BL8 BL9 BL10 BL11 BL12
+  BL13 BL14 BL15 BLB0 BLB1 BLB2 BLB3 BLB4 BLB5 BLB6 BLB7 BLB8 BLB9 BLB10
+  BLB11 BLB12 BLB13 BLB14 BLB15 CSI IPB IOE Z0FF Z0Q Z1FF Z1Q Z2FF Z2Q 
+  Z3FF Z3Q WEBFF WEQ YS0 YS1 YS2 YS3 YS4 YS5 YS6 YS7 YSEL ZSFF  ZS DI DO
+  WEB
XBLMUX0  BL0 BL1 BL2 BL3 BL4 BL5 BL6 BL7 BLB0 BLB1 BLB2 BLB3 BLB4 BLB5 BLB6  
+ BLB7 BLPCH DL  DLB YS0 YS1 YS2 YS3 YS4 YS5 YS6 YS7 YSELDB SHKD_BLMUX
X1I1917  N1N2396 WIP SHKD_PARINV  LP=0.12U WP=1.20U LN=0.12U WN=0.40U
X1I1927  ENSA ENSAB SHKD_PARINV  LP=0.12U WP=1.80U LN=0.12U WN=0.60U
X1I1983  DII AN2I SHKD_PARINV  LP=0.12U WP=3.00U LN=0.12U WN=1.50U
X1I1985  AN2I AN2 IPB_DI IP  SHKD_PARTRANS  LP=0.12U WP=1.50U LN=0.12U WN=0.60U
X1I1986  DIBDL DIB WIP N1N2396 SHKD_PARTRANS  LP=0.12U WP=2.00U LN=0.12U WN=1.00U
M1I1987  DLB DIIDLB GND    GND N_12_LLL110E L=0.12U W=8.00U
M1I1990  DIIDLB N1N2396 GND    GND N_12_LLL110E L=0.12U W=0.40U
X1I1991  N1N1960 DII SHKD_PARINV  LP=0.12U WP=0.24U LN=0.12U WN=0.24U
X1I1992  DIB DII SHKD_PARINV  LP=0.12U WP=4.00U LN=0.12U WN=1.50U
M1I1993  DIBDL N1N2396 GND    GND N_12_LLL110E L=0.12U W=0.40U
X1I1994  AN2 AN1 SHKD_PARINV  LP=0.12U WP=2.10U LN=0.12U WN=0.70U
X1I1995  AN1 AN0 SHKD_PARINV  LP=0.2U WP=0.70U LN=0.2U WN=0.40U
M1I1998  DL  DIBDL GND    GND N_12_LLL110E L=0.12U W=8.00U
X1I2011  OEBI OEI SHKD_PARINV  LP=0.12U WP=1.00U LN=0.12U WN=0.40U
M1I2012  DOBP OEI VCC  VCC P_12_LLL110E L=0.12U W=1.00U
M1I2013  DOBN OEBI GND    GND N_12_LLL110E L=0.12U W=0.50U
M1I2027  DOBI ST1 GND    GND N_12_LLL110E L=0.12U W=3.00U
M1I2028  N1N1975 ST1 DOBI  VCC P_12_LLL110E L=0.12U W=1.00U
X1I2030  OEI IOEB SHKD_PARINV  LP=0.12U WP=1.00U LN=0.12U WN=0.40U
X1I2042  ST1 DLB1 N1N2645 SHKD_PARNAND  LP=0.12U WP=1.00U LN=0.12U WN=1.00U M=1
X1I2043  ST2 DL1 N1N2647 SHKD_PARNAND  LP=0.12U WP=1.00U LN=0.12U WN=1.00U M=1
M1I2045  VCC N1N2116 N1N1975  VCC P_12_LLL110E L=0.12U W=1.00U
X1I2046  N1N2116 DOBI SHKD_PARINV  LP=0.12U WP=0.48U LN=0.12U WN=0.25U
M1I2047  VCC ST3 DOBI  VCC P_12_LLL110E L=0.12U W=8.00U
M1I2048  DOBI ST3 N1N1973  GND N_12_LLL110E L=0.12U W=0.50U
M1I2049  N1N1973 N1N2116 GND    GND N_12_LLL110E L=0.12U W=0.50U
X1I2050  ST3 ST2 SHKD_PARINV  LP=0.12U WP=1.50U LN=0.12U WN=2.00U
M1I2056  DO  DOBN GND    GND N_12_LLL110E L=0.12U W=8.00U
X1I2061  DOBP DOBI OEI OEBI SHKD_PARTRANS  LP=0.12U WP=1.50U LN=0.12U WN=1.50U
X1I2062  DOBN DOBI OEI OEBI SHKD_PARTRANS  LP=0.12U WP=1.50U LN=0.12U WN=1.00U
M1I2063  DO  DOBP VCC  VCC P_12_LLL110E L=0.12U W=16.00U
X1I2067  IOEB ZSFF IOE SHKD_PARNAND  LP=0.12U WP=0.48U LN=0.12U WN=0.24U M=1
X1I2081  DIIDLB DII WIP N1N2396 SHKD_PARTRANS  LP=0.12U WP=2.00U LN=0.12U WN=1.00U
X1I2098  CSDI N1N2725 CSI SHKD_PARNAND  LP=0.12U WP=0.36U LN=0.12U WN=0.24U M=1
X1I2170  WIP WIPB SHKD_PARINV  LP=0.12U WP=1.20U LN=0.12U WN=0.40U
X1I2214  N1N2721 DI  SHKD_PARINV  LP=0.12U WP=0.48U LN=0.12U WN=0.24U
X1I2221  AN0 CSDI SHKD_PARINV  LP=0.2U WP=0.48U LN=0.2U WN=0.24U
X1I2389  ENSAB IPB_DI IPBDB RS  SHKD_PARNAND3  LP=0.12U WP=0.8U LN=0.12U WN=0.8U M=1
X1I2400  IP_DI IPB_DI SHKD_PARINV  LP=0.12U WP=0.24U LN=0.12U WN=0.24U
X1I2404  WIPB IP  WEQ ZS  SHKD_PARNAND3  LP=0.12U WP=0.40U LN=0.12U WN=0.40U M=1
X1I2414  RSB WEBFF ZSFF SHKD_PARNAND  LP=0.12U WP=0.24U LN=0.12U WN=0.24U M=1
X1I2417  RS  RSB SHKD_PARINV  LP=0.12U WP=0.24U LN=0.12U WN=0.24U
X1I2428  IPB_DI IP  SHKD_PARINV  LP=0.12U WP=1.00U LN=0.12U WN=0.50U
X1I2459  IP  IPB SHKD_PARINV  LP=0.12U WP=1.00U LN=0.12U WN=0.50U
X1I2468  N1N2719 IP_DI SHKD_PARINV  LP=0.12U WP=0.24U LN=0.12U WN=0.24U
X1I2477  N1N2479 N1N2714 SHKD_PARINV  LP=0.2U WP=0.24U LN=0.2U WN=0.24U